*SPEF "ieee 1481-1999"
*DESIGN "project2"
*DATE "19:45:59 Monday April 21, 2025"
*VENDOR "The OpenROAD Project"
*PROGRAM "OpenROAD"
*VERSION "b16bda7e82721d10566ff7e2b68f1ff0be9f9e38"
*DESIGN_FLOW "NAME_SCOPE LOCAL" "PIN_CAP NONE"
*DIVIDER /
*DELIMITER :
*BUS_DELIMITER []
*T_UNIT 1 NS
*C_UNIT 1 PF
*R_UNIT 1 OHM
*L_UNIT 1 HENRY

*NAME_MAP
*1 A[0]
*2 A[1]
*3 A[2]
*4 A[3]
*5 A[4]
*6 A[5]
*7 A[6]
*8 A[7]
*9 B[0]
*10 B[1]
*11 B[2]
*12 B[3]
*13 B[4]
*14 B[5]
*15 B[6]
*16 B[7]
*19 opcode[0]
*20 opcode[1]
*21 opcode[2]
*22 out[0]
*23 out[1]
*24 out[2]
*25 out[3]
*26 out[4]
*27 out[5]
*28 out[6]
*29 out[7]
*30 _000_
*31 _001_
*32 _002_
*33 _003_
*34 _004_
*35 _005_
*36 _006_
*37 _007_
*38 _008_
*39 _009_
*40 _010_
*41 _011_
*42 _012_
*43 _013_
*44 _014_
*45 _015_
*46 _016_
*47 _017_
*48 _018_
*49 _019_
*50 _020_
*51 _021_
*52 _022_
*53 _023_
*54 _024_
*55 _025_
*56 _026_
*57 _027_
*58 _028_
*59 _029_
*60 _030_
*61 _031_
*62 _032_
*63 _033_
*64 _034_
*65 _035_
*66 _036_
*67 _037_
*68 _038_
*69 _039_
*70 _040_
*71 _041_
*72 _042_
*73 _043_
*74 _044_
*75 _045_
*76 _046_
*77 _047_
*78 _048_
*79 _049_
*80 _050_
*81 _051_
*82 _052_
*83 _053_
*84 _054_
*85 _055_
*86 _056_
*87 _057_
*88 _058_
*89 _059_
*90 _060_
*91 _061_
*92 _062_
*93 _063_
*94 _064_
*95 _065_
*96 _066_
*97 _067_
*98 _068_
*99 _069_
*100 _070_
*101 _071_
*102 _072_
*103 _073_
*104 _074_
*105 _075_
*106 _076_
*107 _077_
*108 _078_
*109 _079_
*110 _080_
*111 _081_
*112 _082_
*113 _083_
*114 _084_
*115 _085_
*116 _086_
*117 _087_
*118 _088_
*119 _089_
*120 _090_
*121 _091_
*122 _092_
*123 _093_
*124 _094_
*125 _095_
*126 _096_
*127 _097_
*128 _098_
*129 _099_
*130 _100_
*131 _101_
*132 _102_
*133 _103_
*134 _104_
*135 _105_
*136 _106_
*137 _107_
*138 _108_
*139 _109_
*140 _110_
*141 _111_
*142 _112_
*143 _113_
*144 _114_
*145 _115_
*146 _116_
*147 _117_
*148 _118_
*149 _119_
*150 _120_
*151 _121_
*152 _122_
*153 _123_
*154 _124_
*155 _125_
*156 _126_
*157 _127_
*158 _128_
*159 _129_
*160 _130_
*161 _131_
*162 _132_
*163 _133_
*164 _134_
*165 _135_
*166 _136_
*167 _137_
*168 _138_
*169 _139_
*170 _140_
*171 _141_
*172 _142_
*173 _143_
*174 _144_
*175 _145_
*176 _146_
*177 _147_
*178 _148_
*179 _149_
*180 _150_
*181 _151_
*182 _152_
*183 _153_
*184 _154_
*185 _155_
*186 _156_
*187 _157_
*188 _158_
*189 _159_
*190 _160_
*191 _161_
*192 _162_
*193 _163_
*194 _164_
*195 _165_
*196 _166_
*197 _167_
*198 _168_
*199 _169_
*200 _170_
*201 _171_
*202 _172_
*203 _173_
*204 _174_
*205 _175_
*206 _176_
*207 _177_
*208 _178_
*209 _179_
*210 _180_
*211 _181_
*212 _182_
*213 _183_
*214 _184_
*215 _185_
*216 _186_
*217 _187_
*218 _188_
*219 _189_
*220 _190_
*221 _191_
*222 _192_
*223 _193_
*224 _194_
*225 _195_
*226 _196_
*227 _197_
*228 _198_
*229 _199_
*230 _200_
*231 _201_
*232 _202_
*233 _203_
*234 _204_
*235 _205_
*236 _206_
*237 _207_
*238 _208_
*239 _209_
*240 _210_
*241 _211_
*242 _212_
*243 _213_
*244 _214_
*245 _215_
*246 _216_
*247 _217_
*248 _218_
*249 _219_
*250 _220_
*251 _221_
*252 _222_
*253 _223_
*254 _224_
*255 _225_
*256 _226_
*257 _227_
*258 _228_
*259 _229_
*260 _230_
*261 _231_
*262 _232_
*263 _233_
*264 net1
*265 net10
*266 net11
*267 net12
*268 net13
*269 net14
*270 net15
*271 net16
*272 net17
*273 net18
*274 net19
*275 net2
*276 net20
*277 net21
*278 net22
*279 net23
*280 net24
*281 net25
*282 net26
*283 net27
*284 net28
*285 net29
*286 net3
*287 net30
*288 net31
*289 net32
*290 net33
*291 net34
*292 net35
*293 net36
*294 net37
*295 net38
*296 net39
*297 net4
*298 net40
*299 net5
*300 net6
*301 net7
*302 net8
*303 net9
*304 ANTENNA_1
*305 ANTENNA_2
*306 ANTENNA_3
*307 ANTENNA_4
*308 ANTENNA_5
*309 FILLER_0_0_109
*310 FILLER_0_0_113
*311 FILLER_0_0_125
*312 FILLER_0_0_137
*313 FILLER_0_0_141
*314 FILLER_0_0_149
*315 FILLER_0_0_15
*316 FILLER_0_0_160
*317 FILLER_0_0_182
*318 FILLER_0_0_27
*319 FILLER_0_0_29
*320 FILLER_0_0_3
*321 FILLER_0_0_41
*322 FILLER_0_0_53
*323 FILLER_0_0_57
*324 FILLER_0_0_69
*325 FILLER_0_0_81
*326 FILLER_0_0_85
*327 FILLER_0_0_97
*328 FILLER_0_10_104
*329 FILLER_0_10_114
*330 FILLER_0_10_126
*331 FILLER_0_10_149
*332 FILLER_0_10_15
*333 FILLER_0_10_156
*334 FILLER_0_10_165
*335 FILLER_0_10_171
*336 FILLER_0_10_179
*337 FILLER_0_10_187
*338 FILLER_0_10_27
*339 FILLER_0_10_29
*340 FILLER_0_10_3
*341 FILLER_0_10_41
*342 FILLER_0_10_53
*343 FILLER_0_10_61
*344 FILLER_0_10_85
*345 FILLER_0_10_97
*346 FILLER_0_11_110
*347 FILLER_0_11_113
*348 FILLER_0_11_123
*349 FILLER_0_11_135
*350 FILLER_0_11_143
*351 FILLER_0_11_148
*352 FILLER_0_11_169
*353 FILLER_0_11_17
*354 FILLER_0_11_181
*355 FILLER_0_11_189
*356 FILLER_0_11_27
*357 FILLER_0_11_39
*358 FILLER_0_11_51
*359 FILLER_0_11_55
*360 FILLER_0_11_57
*361 FILLER_0_11_69
*362 FILLER_0_11_77
*363 FILLER_0_11_9
*364 FILLER_0_12_109
*365 FILLER_0_12_119
*366 FILLER_0_12_131
*367 FILLER_0_12_171
*368 FILLER_0_12_18
*369 FILLER_0_12_183
*370 FILLER_0_12_189
*371 FILLER_0_12_26
*372 FILLER_0_12_29
*373 FILLER_0_12_41
*374 FILLER_0_12_53
*375 FILLER_0_12_66
*376 FILLER_0_12_73
*377 FILLER_0_12_81
*378 FILLER_0_12_85
*379 FILLER_0_12_97
*380 FILLER_0_13_102
*381 FILLER_0_13_110
*382 FILLER_0_13_113
*383 FILLER_0_13_121
*384 FILLER_0_13_136
*385 FILLER_0_13_148
*386 FILLER_0_13_160
*387 FILLER_0_13_178
*388 FILLER_0_13_21
*389 FILLER_0_13_27
*390 FILLER_0_13_34
*391 FILLER_0_13_46
*392 FILLER_0_13_54
*393 FILLER_0_13_57
*394 FILLER_0_13_65
*395 FILLER_0_13_81
*396 FILLER_0_13_85
*397 FILLER_0_13_9
*398 FILLER_0_14_107
*399 FILLER_0_14_115
*400 FILLER_0_14_122
*401 FILLER_0_14_134
*402 FILLER_0_14_141
*403 FILLER_0_14_145
*404 FILLER_0_14_15
*405 FILLER_0_14_153
*406 FILLER_0_14_27
*407 FILLER_0_14_29
*408 FILLER_0_14_3
*409 FILLER_0_14_37
*410 FILLER_0_14_45
*411 FILLER_0_14_57
*412 FILLER_0_14_66
*413 FILLER_0_14_78
*414 FILLER_0_14_85
*415 FILLER_0_14_97
*416 FILLER_0_15_104
*417 FILLER_0_15_113
*418 FILLER_0_15_117
*419 FILLER_0_15_124
*420 FILLER_0_15_136
*421 FILLER_0_15_148
*422 FILLER_0_15_16
*423 FILLER_0_15_160
*424 FILLER_0_15_169
*425 FILLER_0_15_181
*426 FILLER_0_15_187
*427 FILLER_0_15_28
*428 FILLER_0_15_3
*429 FILLER_0_15_40
*430 FILLER_0_15_52
*431 FILLER_0_15_57
*432 FILLER_0_15_80
*433 FILLER_0_15_92
*434 FILLER_0_16_109
*435 FILLER_0_16_137
*436 FILLER_0_16_146
*437 FILLER_0_16_150
*438 FILLER_0_16_164
*439 FILLER_0_16_176
*440 FILLER_0_16_180
*441 FILLER_0_16_189
*442 FILLER_0_16_27
*443 FILLER_0_16_29
*444 FILLER_0_16_41
*445 FILLER_0_16_53
*446 FILLER_0_16_65
*447 FILLER_0_16_77
*448 FILLER_0_16_83
*449 FILLER_0_16_85
*450 FILLER_0_16_9
*451 FILLER_0_16_97
*452 FILLER_0_17_106
*453 FILLER_0_17_118
*454 FILLER_0_17_128
*455 FILLER_0_17_140
*456 FILLER_0_17_148
*457 FILLER_0_17_169
*458 FILLER_0_17_177
*459 FILLER_0_17_189
*460 FILLER_0_17_21
*461 FILLER_0_17_33
*462 FILLER_0_17_45
*463 FILLER_0_17_53
*464 FILLER_0_17_57
*465 FILLER_0_17_69
*466 FILLER_0_17_81
*467 FILLER_0_17_9
*468 FILLER_0_17_93
*469 FILLER_0_18_121
*470 FILLER_0_18_128
*471 FILLER_0_18_141
*472 FILLER_0_18_149
*473 FILLER_0_18_15
*474 FILLER_0_18_164
*475 FILLER_0_18_176
*476 FILLER_0_18_181
*477 FILLER_0_18_189
*478 FILLER_0_18_27
*479 FILLER_0_18_29
*480 FILLER_0_18_3
*481 FILLER_0_18_42
*482 FILLER_0_18_67
*483 FILLER_0_18_7
*484 FILLER_0_18_79
*485 FILLER_0_18_83
*486 FILLER_0_18_85
*487 FILLER_0_18_97
*488 FILLER_0_19_105
*489 FILLER_0_19_111
*490 FILLER_0_19_113
*491 FILLER_0_19_125
*492 FILLER_0_19_137
*493 FILLER_0_19_149
*494 FILLER_0_19_15
*495 FILLER_0_19_161
*496 FILLER_0_19_167
*497 FILLER_0_19_182
*498 FILLER_0_19_27
*499 FILLER_0_19_3
*500 FILLER_0_19_39
*501 FILLER_0_19_43
*502 FILLER_0_19_57
*503 FILLER_0_19_69
*504 FILLER_0_19_81
*505 FILLER_0_19_93
*506 FILLER_0_1_110
*507 FILLER_0_1_113
*508 FILLER_0_1_121
*509 FILLER_0_1_152
*510 FILLER_0_1_167
*511 FILLER_0_1_169
*512 FILLER_0_1_21
*513 FILLER_0_1_33
*514 FILLER_0_1_45
*515 FILLER_0_1_53
*516 FILLER_0_1_57
*517 FILLER_0_1_69
*518 FILLER_0_1_77
*519 FILLER_0_1_9
*520 FILLER_0_1_98
*521 FILLER_0_20_108
*522 FILLER_0_20_136
*523 FILLER_0_20_141
*524 FILLER_0_20_15
*525 FILLER_0_20_153
*526 FILLER_0_20_165
*527 FILLER_0_20_177
*528 FILLER_0_20_185
*529 FILLER_0_20_27
*530 FILLER_0_20_29
*531 FILLER_0_20_3
*532 FILLER_0_20_41
*533 FILLER_0_20_53
*534 FILLER_0_20_75
*535 FILLER_0_20_83
*536 FILLER_0_20_85
*537 FILLER_0_21_106
*538 FILLER_0_21_113
*539 FILLER_0_21_121
*540 FILLER_0_21_136
*541 FILLER_0_21_148
*542 FILLER_0_21_160
*543 FILLER_0_21_169
*544 FILLER_0_21_181
*545 FILLER_0_21_189
*546 FILLER_0_21_21
*547 FILLER_0_21_33
*548 FILLER_0_21_53
*549 FILLER_0_21_57
*550 FILLER_0_21_65
*551 FILLER_0_21_7
*552 FILLER_0_21_71
*553 FILLER_0_21_83
*554 FILLER_0_21_95
*555 FILLER_0_22_101
*556 FILLER_0_22_113
*557 FILLER_0_22_125
*558 FILLER_0_22_137
*559 FILLER_0_22_153
*560 FILLER_0_22_167
*561 FILLER_0_22_17
*562 FILLER_0_22_179
*563 FILLER_0_22_187
*564 FILLER_0_22_25
*565 FILLER_0_22_29
*566 FILLER_0_22_37
*567 FILLER_0_22_49
*568 FILLER_0_22_60
*569 FILLER_0_22_72
*570 FILLER_0_22_83
*571 FILLER_0_22_89
*572 FILLER_0_22_9
*573 FILLER_0_23_104
*574 FILLER_0_23_113
*575 FILLER_0_23_12
*576 FILLER_0_23_125
*577 FILLER_0_23_137
*578 FILLER_0_23_145
*579 FILLER_0_23_156
*580 FILLER_0_23_169
*581 FILLER_0_23_182
*582 FILLER_0_23_24
*583 FILLER_0_23_3
*584 FILLER_0_23_36
*585 FILLER_0_23_48
*586 FILLER_0_23_57
*587 FILLER_0_23_68
*588 FILLER_0_23_80
*589 FILLER_0_23_92
*590 FILLER_0_24_109
*591 FILLER_0_24_121
*592 FILLER_0_24_133
*593 FILLER_0_24_139
*594 FILLER_0_24_141
*595 FILLER_0_24_153
*596 FILLER_0_24_163
*597 FILLER_0_24_175
*598 FILLER_0_24_18
*599 FILLER_0_24_187
*600 FILLER_0_24_26
*601 FILLER_0_24_32
*602 FILLER_0_24_38
*603 FILLER_0_24_53
*604 FILLER_0_24_65
*605 FILLER_0_24_74
*606 FILLER_0_24_82
*607 FILLER_0_24_85
*608 FILLER_0_24_97
*609 FILLER_0_25_100
*610 FILLER_0_25_113
*611 FILLER_0_25_125
*612 FILLER_0_25_135
*613 FILLER_0_25_147
*614 FILLER_0_25_15
*615 FILLER_0_25_159
*616 FILLER_0_25_167
*617 FILLER_0_25_169
*618 FILLER_0_25_181
*619 FILLER_0_25_189
*620 FILLER_0_25_27
*621 FILLER_0_25_3
*622 FILLER_0_25_35
*623 FILLER_0_25_39
*624 FILLER_0_25_51
*625 FILLER_0_25_55
*626 FILLER_0_25_57
*627 FILLER_0_25_63
*628 FILLER_0_25_76
*629 FILLER_0_25_88
*630 FILLER_0_26_109
*631 FILLER_0_26_125
*632 FILLER_0_26_137
*633 FILLER_0_26_148
*634 FILLER_0_26_161
*635 FILLER_0_26_169
*636 FILLER_0_26_17
*637 FILLER_0_26_23
*638 FILLER_0_26_27
*639 FILLER_0_26_29
*640 FILLER_0_26_41
*641 FILLER_0_26_53
*642 FILLER_0_26_59
*643 FILLER_0_26_64
*644 FILLER_0_26_78
*645 FILLER_0_26_85
*646 FILLER_0_26_9
*647 FILLER_0_26_97
*648 FILLER_0_27_106
*649 FILLER_0_27_113
*650 FILLER_0_27_125
*651 FILLER_0_27_133
*652 FILLER_0_27_149
*653 FILLER_0_27_161
*654 FILLER_0_27_167
*655 FILLER_0_27_169
*656 FILLER_0_27_21
*657 FILLER_0_27_3
*658 FILLER_0_27_33
*659 FILLER_0_27_37
*660 FILLER_0_27_49
*661 FILLER_0_27_55
*662 FILLER_0_27_57
*663 FILLER_0_27_69
*664 FILLER_0_27_7
*665 FILLER_0_27_81
*666 FILLER_0_27_94
*667 FILLER_0_28_109
*668 FILLER_0_28_12
*669 FILLER_0_28_121
*670 FILLER_0_28_133
*671 FILLER_0_28_139
*672 FILLER_0_28_141
*673 FILLER_0_28_153
*674 FILLER_0_28_165
*675 FILLER_0_28_177
*676 FILLER_0_28_189
*677 FILLER_0_28_29
*678 FILLER_0_28_41
*679 FILLER_0_28_53
*680 FILLER_0_28_74
*681 FILLER_0_28_82
*682 FILLER_0_28_85
*683 FILLER_0_28_97
*684 FILLER_0_29_100
*685 FILLER_0_29_108
*686 FILLER_0_29_113
*687 FILLER_0_29_125
*688 FILLER_0_29_137
*689 FILLER_0_29_149
*690 FILLER_0_29_15
*691 FILLER_0_29_161
*692 FILLER_0_29_167
*693 FILLER_0_29_175
*694 FILLER_0_29_187
*695 FILLER_0_29_27
*696 FILLER_0_29_3
*697 FILLER_0_29_34
*698 FILLER_0_29_46
*699 FILLER_0_29_54
*700 FILLER_0_29_63
*701 FILLER_0_29_75
*702 FILLER_0_29_79
*703 FILLER_0_29_88
*704 FILLER_0_2_107
*705 FILLER_0_2_119
*706 FILLER_0_2_131
*707 FILLER_0_2_139
*708 FILLER_0_2_141
*709 FILLER_0_2_15
*710 FILLER_0_2_153
*711 FILLER_0_2_165
*712 FILLER_0_2_177
*713 FILLER_0_2_185
*714 FILLER_0_2_189
*715 FILLER_0_2_27
*716 FILLER_0_2_29
*717 FILLER_0_2_3
*718 FILLER_0_2_41
*719 FILLER_0_2_49
*720 FILLER_0_2_58
*721 FILLER_0_2_7
*722 FILLER_0_2_70
*723 FILLER_0_2_82
*724 FILLER_0_2_85
*725 FILLER_0_30_111
*726 FILLER_0_30_128
*727 FILLER_0_30_145
*728 FILLER_0_30_15
*729 FILLER_0_30_153
*730 FILLER_0_30_157
*731 FILLER_0_30_167
*732 FILLER_0_30_179
*733 FILLER_0_30_187
*734 FILLER_0_30_27
*735 FILLER_0_30_29
*736 FILLER_0_30_3
*737 FILLER_0_30_39
*738 FILLER_0_30_51
*739 FILLER_0_30_59
*740 FILLER_0_30_71
*741 FILLER_0_30_83
*742 FILLER_0_30_85
*743 FILLER_0_30_89
*744 FILLER_0_30_94
*745 FILLER_0_31_108
*746 FILLER_0_31_113
*747 FILLER_0_31_121
*748 FILLER_0_31_131
*749 FILLER_0_31_143
*750 FILLER_0_31_15
*751 FILLER_0_31_155
*752 FILLER_0_31_161
*753 FILLER_0_31_169
*754 FILLER_0_31_176
*755 FILLER_0_31_188
*756 FILLER_0_31_22
*757 FILLER_0_31_30
*758 FILLER_0_31_42
*759 FILLER_0_31_54
*760 FILLER_0_31_57
*761 FILLER_0_31_69
*762 FILLER_0_31_7
*763 FILLER_0_31_81
*764 FILLER_0_31_96
*765 FILLER_0_32_109
*766 FILLER_0_32_121
*767 FILLER_0_32_133
*768 FILLER_0_32_139
*769 FILLER_0_32_141
*770 FILLER_0_32_146
*771 FILLER_0_32_15
*772 FILLER_0_32_151
*773 FILLER_0_32_161
*774 FILLER_0_32_173
*775 FILLER_0_32_187
*776 FILLER_0_32_27
*777 FILLER_0_32_29
*778 FILLER_0_32_3
*779 FILLER_0_32_41
*780 FILLER_0_32_53
*781 FILLER_0_32_65
*782 FILLER_0_32_73
*783 FILLER_0_32_85
*784 FILLER_0_32_97
*785 FILLER_0_33_105
*786 FILLER_0_33_111
*787 FILLER_0_33_113
*788 FILLER_0_33_12
*789 FILLER_0_33_121
*790 FILLER_0_33_136
*791 FILLER_0_33_148
*792 FILLER_0_33_160
*793 FILLER_0_33_169
*794 FILLER_0_33_189
*795 FILLER_0_33_24
*796 FILLER_0_33_37
*797 FILLER_0_33_49
*798 FILLER_0_33_55
*799 FILLER_0_33_57
*800 FILLER_0_33_69
*801 FILLER_0_33_75
*802 FILLER_0_33_83
*803 FILLER_0_33_93
*804 FILLER_0_34_109
*805 FILLER_0_34_121
*806 FILLER_0_34_133
*807 FILLER_0_34_139
*808 FILLER_0_34_141
*809 FILLER_0_34_153
*810 FILLER_0_34_166
*811 FILLER_0_34_174
*812 FILLER_0_34_18
*813 FILLER_0_34_26
*814 FILLER_0_34_29
*815 FILLER_0_34_3
*816 FILLER_0_34_41
*817 FILLER_0_34_53
*818 FILLER_0_34_63
*819 FILLER_0_34_75
*820 FILLER_0_34_83
*821 FILLER_0_34_85
*822 FILLER_0_34_97
*823 FILLER_0_35_110
*824 FILLER_0_35_113
*825 FILLER_0_35_125
*826 FILLER_0_35_149
*827 FILLER_0_35_161
*828 FILLER_0_35_167
*829 FILLER_0_35_186
*830 FILLER_0_35_22
*831 FILLER_0_35_3
*832 FILLER_0_35_30
*833 FILLER_0_35_37
*834 FILLER_0_35_49
*835 FILLER_0_35_55
*836 FILLER_0_35_57
*837 FILLER_0_35_61
*838 FILLER_0_35_74
*839 FILLER_0_35_86
*840 FILLER_0_35_98
*841 FILLER_0_36_110
*842 FILLER_0_36_12
*843 FILLER_0_36_122
*844 FILLER_0_36_134
*845 FILLER_0_36_141
*846 FILLER_0_36_153
*847 FILLER_0_36_172
*848 FILLER_0_36_176
*849 FILLER_0_36_18
*850 FILLER_0_36_184
*851 FILLER_0_36_26
*852 FILLER_0_36_29
*853 FILLER_0_36_41
*854 FILLER_0_36_53
*855 FILLER_0_36_65
*856 FILLER_0_36_77
*857 FILLER_0_36_83
*858 FILLER_0_36_85
*859 FILLER_0_36_93
*860 FILLER_0_36_98
*861 FILLER_0_37_104
*862 FILLER_0_37_113
*863 FILLER_0_37_121
*864 FILLER_0_37_130
*865 FILLER_0_37_142
*866 FILLER_0_37_15
*867 FILLER_0_37_154
*868 FILLER_0_37_166
*869 FILLER_0_37_169
*870 FILLER_0_37_175
*871 FILLER_0_37_185
*872 FILLER_0_37_189
*873 FILLER_0_37_27
*874 FILLER_0_37_39
*875 FILLER_0_37_51
*876 FILLER_0_37_55
*877 FILLER_0_37_57
*878 FILLER_0_37_71
*879 FILLER_0_37_75
*880 FILLER_0_37_80
*881 FILLER_0_37_92
*882 FILLER_0_38_103
*883 FILLER_0_38_115
*884 FILLER_0_38_127
*885 FILLER_0_38_139
*886 FILLER_0_38_141
*887 FILLER_0_38_153
*888 FILLER_0_38_16
*889 FILLER_0_38_165
*890 FILLER_0_38_173
*891 FILLER_0_38_29
*892 FILLER_0_38_41
*893 FILLER_0_38_49
*894 FILLER_0_38_57
*895 FILLER_0_38_72
*896 FILLER_0_38_91
*897 FILLER_0_39_110
*898 FILLER_0_39_113
*899 FILLER_0_39_125
*900 FILLER_0_39_137
*901 FILLER_0_39_149
*902 FILLER_0_39_15
*903 FILLER_0_39_161
*904 FILLER_0_39_167
*905 FILLER_0_39_173
*906 FILLER_0_39_177
*907 FILLER_0_39_181
*908 FILLER_0_39_189
*909 FILLER_0_39_27
*910 FILLER_0_39_3
*911 FILLER_0_39_33
*912 FILLER_0_39_48
*913 FILLER_0_39_57
*914 FILLER_0_39_69
*915 FILLER_0_39_81
*916 FILLER_0_39_90
*917 FILLER_0_3_101
*918 FILLER_0_3_109
*919 FILLER_0_3_113
*920 FILLER_0_3_125
*921 FILLER_0_3_137
*922 FILLER_0_3_14
*923 FILLER_0_3_149
*924 FILLER_0_3_161
*925 FILLER_0_3_167
*926 FILLER_0_3_169
*927 FILLER_0_3_181
*928 FILLER_0_3_189
*929 FILLER_0_3_26
*930 FILLER_0_3_41
*931 FILLER_0_3_53
*932 FILLER_0_3_57
*933 FILLER_0_3_65
*934 FILLER_0_3_77
*935 FILLER_0_3_89
*936 FILLER_0_40_102
*937 FILLER_0_40_114
*938 FILLER_0_40_126
*939 FILLER_0_40_138
*940 FILLER_0_40_141
*941 FILLER_0_40_15
*942 FILLER_0_40_153
*943 FILLER_0_40_165
*944 FILLER_0_40_180
*945 FILLER_0_40_184
*946 FILLER_0_40_27
*947 FILLER_0_40_29
*948 FILLER_0_40_3
*949 FILLER_0_40_33
*950 FILLER_0_40_41
*951 FILLER_0_40_53
*952 FILLER_0_40_65
*953 FILLER_0_40_79
*954 FILLER_0_40_83
*955 FILLER_0_40_85
*956 FILLER_0_41_105
*957 FILLER_0_41_111
*958 FILLER_0_41_113
*959 FILLER_0_41_125
*960 FILLER_0_41_137
*961 FILLER_0_41_149
*962 FILLER_0_41_15
*963 FILLER_0_41_161
*964 FILLER_0_41_167
*965 FILLER_0_41_169
*966 FILLER_0_41_181
*967 FILLER_0_41_189
*968 FILLER_0_41_19
*969 FILLER_0_41_23
*970 FILLER_0_41_31
*971 FILLER_0_41_43
*972 FILLER_0_41_55
*973 FILLER_0_41_57
*974 FILLER_0_41_69
*975 FILLER_0_41_81
*976 FILLER_0_41_9
*977 FILLER_0_41_93
*978 FILLER_0_42_101
*979 FILLER_0_42_113
*980 FILLER_0_42_125
*981 FILLER_0_42_137
*982 FILLER_0_42_141
*983 FILLER_0_42_15
*984 FILLER_0_42_153
*985 FILLER_0_42_168
*986 FILLER_0_42_180
*987 FILLER_0_42_188
*988 FILLER_0_42_25
*989 FILLER_0_42_29
*990 FILLER_0_42_3
*991 FILLER_0_42_41
*992 FILLER_0_42_47
*993 FILLER_0_42_74
*994 FILLER_0_42_82
*995 FILLER_0_42_85
*996 FILLER_0_42_97
*997 FILLER_0_43_108
*998 FILLER_0_43_113
*999 FILLER_0_43_125
*1000 FILLER_0_43_133
*1001 FILLER_0_43_145
*1002 FILLER_0_43_156
*1003 FILLER_0_43_169
*1004 FILLER_0_43_17
*1005 FILLER_0_43_181
*1006 FILLER_0_43_189
*1007 FILLER_0_43_26
*1008 FILLER_0_43_30
*1009 FILLER_0_43_37
*1010 FILLER_0_43_49
*1011 FILLER_0_43_55
*1012 FILLER_0_43_57
*1013 FILLER_0_43_65
*1014 FILLER_0_43_72
*1015 FILLER_0_43_84
*1016 FILLER_0_43_9
*1017 FILLER_0_43_96
*1018 FILLER_0_44_109
*1019 FILLER_0_44_121
*1020 FILLER_0_44_141
*1021 FILLER_0_44_15
*1022 FILLER_0_44_153
*1023 FILLER_0_44_165
*1024 FILLER_0_44_177
*1025 FILLER_0_44_189
*1026 FILLER_0_44_27
*1027 FILLER_0_44_29
*1028 FILLER_0_44_3
*1029 FILLER_0_44_46
*1030 FILLER_0_44_58
*1031 FILLER_0_44_70
*1032 FILLER_0_44_85
*1033 FILLER_0_44_97
*1034 FILLER_0_45_104
*1035 FILLER_0_45_113
*1036 FILLER_0_45_125
*1037 FILLER_0_45_137
*1038 FILLER_0_45_149
*1039 FILLER_0_45_15
*1040 FILLER_0_45_155
*1041 FILLER_0_45_177
*1042 FILLER_0_45_189
*1043 FILLER_0_45_19
*1044 FILLER_0_45_26
*1045 FILLER_0_45_3
*1046 FILLER_0_45_38
*1047 FILLER_0_45_48
*1048 FILLER_0_45_57
*1049 FILLER_0_45_81
*1050 FILLER_0_45_93
*1051 FILLER_0_46_109
*1052 FILLER_0_46_113
*1053 FILLER_0_46_125
*1054 FILLER_0_46_137
*1055 FILLER_0_46_141
*1056 FILLER_0_46_149
*1057 FILLER_0_46_159
*1058 FILLER_0_46_167
*1059 FILLER_0_46_169
*1060 FILLER_0_46_181
*1061 FILLER_0_46_185
*1062 FILLER_0_46_21
*1063 FILLER_0_46_27
*1064 FILLER_0_46_29
*1065 FILLER_0_46_41
*1066 FILLER_0_46_53
*1067 FILLER_0_46_57
*1068 FILLER_0_46_69
*1069 FILLER_0_46_81
*1070 FILLER_0_46_85
*1071 FILLER_0_46_9
*1072 FILLER_0_46_97
*1073 FILLER_0_4_111
*1074 FILLER_0_4_120
*1075 FILLER_0_4_132
*1076 FILLER_0_4_141
*1077 FILLER_0_4_153
*1078 FILLER_0_4_163
*1079 FILLER_0_4_175
*1080 FILLER_0_4_187
*1081 FILLER_0_4_29
*1082 FILLER_0_4_3
*1083 FILLER_0_4_40
*1084 FILLER_0_4_52
*1085 FILLER_0_4_64
*1086 FILLER_0_4_76
*1087 FILLER_0_4_85
*1088 FILLER_0_4_97
*1089 FILLER_0_5_109
*1090 FILLER_0_5_113
*1091 FILLER_0_5_125
*1092 FILLER_0_5_133
*1093 FILLER_0_5_145
*1094 FILLER_0_5_149
*1095 FILLER_0_5_155
*1096 FILLER_0_5_167
*1097 FILLER_0_5_169
*1098 FILLER_0_5_181
*1099 FILLER_0_5_189
*1100 FILLER_0_5_19
*1101 FILLER_0_5_3
*1102 FILLER_0_5_31
*1103 FILLER_0_5_43
*1104 FILLER_0_5_55
*1105 FILLER_0_5_57
*1106 FILLER_0_5_69
*1107 FILLER_0_5_81
*1108 FILLER_0_5_93
*1109 FILLER_0_6_105
*1110 FILLER_0_6_117
*1111 FILLER_0_6_129
*1112 FILLER_0_6_137
*1113 FILLER_0_6_14
*1114 FILLER_0_6_141
*1115 FILLER_0_6_153
*1116 FILLER_0_6_165
*1117 FILLER_0_6_177
*1118 FILLER_0_6_189
*1119 FILLER_0_6_26
*1120 FILLER_0_6_29
*1121 FILLER_0_6_38
*1122 FILLER_0_6_46
*1123 FILLER_0_6_67
*1124 FILLER_0_6_79
*1125 FILLER_0_6_83
*1126 FILLER_0_6_85
*1127 FILLER_0_6_97
*1128 FILLER_0_7_105
*1129 FILLER_0_7_111
*1130 FILLER_0_7_126
*1131 FILLER_0_7_138
*1132 FILLER_0_7_150
*1133 FILLER_0_7_162
*1134 FILLER_0_7_169
*1135 FILLER_0_7_181
*1136 FILLER_0_7_19
*1137 FILLER_0_7_31
*1138 FILLER_0_7_43
*1139 FILLER_0_7_55
*1140 FILLER_0_7_57
*1141 FILLER_0_7_69
*1142 FILLER_0_7_81
*1143 FILLER_0_7_93
*1144 FILLER_0_8_109
*1145 FILLER_0_8_117
*1146 FILLER_0_8_123
*1147 FILLER_0_8_155
*1148 FILLER_0_8_169
*1149 FILLER_0_8_17
*1150 FILLER_0_8_181
*1151 FILLER_0_8_189
*1152 FILLER_0_8_29
*1153 FILLER_0_8_41
*1154 FILLER_0_8_53
*1155 FILLER_0_8_59
*1156 FILLER_0_8_79
*1157 FILLER_0_8_83
*1158 FILLER_0_8_85
*1159 FILLER_0_8_9
*1160 FILLER_0_8_97
*1161 FILLER_0_9_109
*1162 FILLER_0_9_113
*1163 FILLER_0_9_125
*1164 FILLER_0_9_137
*1165 FILLER_0_9_149
*1166 FILLER_0_9_15
*1167 FILLER_0_9_161
*1168 FILLER_0_9_167
*1169 FILLER_0_9_169
*1170 FILLER_0_9_184
*1171 FILLER_0_9_27
*1172 FILLER_0_9_3
*1173 FILLER_0_9_39
*1174 FILLER_0_9_51
*1175 FILLER_0_9_55
*1176 FILLER_0_9_57
*1177 FILLER_0_9_65
*1178 FILLER_0_9_73
*1179 FILLER_0_9_85
*1180 FILLER_0_9_93
*1181 PHY_EDGE_ROW_0_Left_47
*1182 PHY_EDGE_ROW_0_Right_0
*1183 PHY_EDGE_ROW_10_Left_57
*1184 PHY_EDGE_ROW_10_Right_10
*1185 PHY_EDGE_ROW_11_Left_58
*1186 PHY_EDGE_ROW_11_Right_11
*1187 PHY_EDGE_ROW_12_Left_59
*1188 PHY_EDGE_ROW_12_Right_12
*1189 PHY_EDGE_ROW_13_Left_60
*1190 PHY_EDGE_ROW_13_Right_13
*1191 PHY_EDGE_ROW_14_Left_61
*1192 PHY_EDGE_ROW_14_Right_14
*1193 PHY_EDGE_ROW_15_Left_62
*1194 PHY_EDGE_ROW_15_Right_15
*1195 PHY_EDGE_ROW_16_Left_63
*1196 PHY_EDGE_ROW_16_Right_16
*1197 PHY_EDGE_ROW_17_Left_64
*1198 PHY_EDGE_ROW_17_Right_17
*1199 PHY_EDGE_ROW_18_Left_65
*1200 PHY_EDGE_ROW_18_Right_18
*1201 PHY_EDGE_ROW_19_Left_66
*1202 PHY_EDGE_ROW_19_Right_19
*1203 PHY_EDGE_ROW_1_Left_48
*1204 PHY_EDGE_ROW_1_Right_1
*1205 PHY_EDGE_ROW_20_Left_67
*1206 PHY_EDGE_ROW_20_Right_20
*1207 PHY_EDGE_ROW_21_Left_68
*1208 PHY_EDGE_ROW_21_Right_21
*1209 PHY_EDGE_ROW_22_Left_69
*1210 PHY_EDGE_ROW_22_Right_22
*1211 PHY_EDGE_ROW_23_Left_70
*1212 PHY_EDGE_ROW_23_Right_23
*1213 PHY_EDGE_ROW_24_Left_71
*1214 PHY_EDGE_ROW_24_Right_24
*1215 PHY_EDGE_ROW_25_Left_72
*1216 PHY_EDGE_ROW_25_Right_25
*1217 PHY_EDGE_ROW_26_Left_73
*1218 PHY_EDGE_ROW_26_Right_26
*1219 PHY_EDGE_ROW_27_Left_74
*1220 PHY_EDGE_ROW_27_Right_27
*1221 PHY_EDGE_ROW_28_Left_75
*1222 PHY_EDGE_ROW_28_Right_28
*1223 PHY_EDGE_ROW_29_Left_76
*1224 PHY_EDGE_ROW_29_Right_29
*1225 PHY_EDGE_ROW_2_Left_49
*1226 PHY_EDGE_ROW_2_Right_2
*1227 PHY_EDGE_ROW_30_Left_77
*1228 PHY_EDGE_ROW_30_Right_30
*1229 PHY_EDGE_ROW_31_Left_78
*1230 PHY_EDGE_ROW_31_Right_31
*1231 PHY_EDGE_ROW_32_Left_79
*1232 PHY_EDGE_ROW_32_Right_32
*1233 PHY_EDGE_ROW_33_Left_80
*1234 PHY_EDGE_ROW_33_Right_33
*1235 PHY_EDGE_ROW_34_Left_81
*1236 PHY_EDGE_ROW_34_Right_34
*1237 PHY_EDGE_ROW_35_Left_82
*1238 PHY_EDGE_ROW_35_Right_35
*1239 PHY_EDGE_ROW_36_Left_83
*1240 PHY_EDGE_ROW_36_Right_36
*1241 PHY_EDGE_ROW_37_Left_84
*1242 PHY_EDGE_ROW_37_Right_37
*1243 PHY_EDGE_ROW_38_Left_85
*1244 PHY_EDGE_ROW_38_Right_38
*1245 PHY_EDGE_ROW_39_Left_86
*1246 PHY_EDGE_ROW_39_Right_39
*1247 PHY_EDGE_ROW_3_Left_50
*1248 PHY_EDGE_ROW_3_Right_3
*1249 PHY_EDGE_ROW_40_Left_87
*1250 PHY_EDGE_ROW_40_Right_40
*1251 PHY_EDGE_ROW_41_Left_88
*1252 PHY_EDGE_ROW_41_Right_41
*1253 PHY_EDGE_ROW_42_Left_89
*1254 PHY_EDGE_ROW_42_Right_42
*1255 PHY_EDGE_ROW_43_Left_90
*1256 PHY_EDGE_ROW_43_Right_43
*1257 PHY_EDGE_ROW_44_Left_91
*1258 PHY_EDGE_ROW_44_Right_44
*1259 PHY_EDGE_ROW_45_Left_92
*1260 PHY_EDGE_ROW_45_Right_45
*1261 PHY_EDGE_ROW_46_Left_93
*1262 PHY_EDGE_ROW_46_Right_46
*1263 PHY_EDGE_ROW_4_Left_51
*1264 PHY_EDGE_ROW_4_Right_4
*1265 PHY_EDGE_ROW_5_Left_52
*1266 PHY_EDGE_ROW_5_Right_5
*1267 PHY_EDGE_ROW_6_Left_53
*1268 PHY_EDGE_ROW_6_Right_6
*1269 PHY_EDGE_ROW_7_Left_54
*1270 PHY_EDGE_ROW_7_Right_7
*1271 PHY_EDGE_ROW_8_Left_55
*1272 PHY_EDGE_ROW_8_Right_8
*1273 PHY_EDGE_ROW_9_Left_56
*1274 PHY_EDGE_ROW_9_Right_9
*1275 TAP_TAPCELL_ROW_0_94
*1276 TAP_TAPCELL_ROW_0_95
*1277 TAP_TAPCELL_ROW_0_96
*1278 TAP_TAPCELL_ROW_0_97
*1279 TAP_TAPCELL_ROW_0_98
*1280 TAP_TAPCELL_ROW_0_99
*1281 TAP_TAPCELL_ROW_10_127
*1282 TAP_TAPCELL_ROW_10_128
*1283 TAP_TAPCELL_ROW_10_129
*1284 TAP_TAPCELL_ROW_11_130
*1285 TAP_TAPCELL_ROW_11_131
*1286 TAP_TAPCELL_ROW_11_132
*1287 TAP_TAPCELL_ROW_12_133
*1288 TAP_TAPCELL_ROW_12_134
*1289 TAP_TAPCELL_ROW_12_135
*1290 TAP_TAPCELL_ROW_13_136
*1291 TAP_TAPCELL_ROW_13_137
*1292 TAP_TAPCELL_ROW_13_138
*1293 TAP_TAPCELL_ROW_14_139
*1294 TAP_TAPCELL_ROW_14_140
*1295 TAP_TAPCELL_ROW_14_141
*1296 TAP_TAPCELL_ROW_15_142
*1297 TAP_TAPCELL_ROW_15_143
*1298 TAP_TAPCELL_ROW_15_144
*1299 TAP_TAPCELL_ROW_16_145
*1300 TAP_TAPCELL_ROW_16_146
*1301 TAP_TAPCELL_ROW_16_147
*1302 TAP_TAPCELL_ROW_17_148
*1303 TAP_TAPCELL_ROW_17_149
*1304 TAP_TAPCELL_ROW_17_150
*1305 TAP_TAPCELL_ROW_18_151
*1306 TAP_TAPCELL_ROW_18_152
*1307 TAP_TAPCELL_ROW_18_153
*1308 TAP_TAPCELL_ROW_19_154
*1309 TAP_TAPCELL_ROW_19_155
*1310 TAP_TAPCELL_ROW_19_156
*1311 TAP_TAPCELL_ROW_1_100
*1312 TAP_TAPCELL_ROW_1_101
*1313 TAP_TAPCELL_ROW_1_102
*1314 TAP_TAPCELL_ROW_20_157
*1315 TAP_TAPCELL_ROW_20_158
*1316 TAP_TAPCELL_ROW_20_159
*1317 TAP_TAPCELL_ROW_21_160
*1318 TAP_TAPCELL_ROW_21_161
*1319 TAP_TAPCELL_ROW_21_162
*1320 TAP_TAPCELL_ROW_22_163
*1321 TAP_TAPCELL_ROW_22_164
*1322 TAP_TAPCELL_ROW_22_165
*1323 TAP_TAPCELL_ROW_23_166
*1324 TAP_TAPCELL_ROW_23_167
*1325 TAP_TAPCELL_ROW_23_168
*1326 TAP_TAPCELL_ROW_24_169
*1327 TAP_TAPCELL_ROW_24_170
*1328 TAP_TAPCELL_ROW_24_171
*1329 TAP_TAPCELL_ROW_25_172
*1330 TAP_TAPCELL_ROW_25_173
*1331 TAP_TAPCELL_ROW_25_174
*1332 TAP_TAPCELL_ROW_26_175
*1333 TAP_TAPCELL_ROW_26_176
*1334 TAP_TAPCELL_ROW_26_177
*1335 TAP_TAPCELL_ROW_27_178
*1336 TAP_TAPCELL_ROW_27_179
*1337 TAP_TAPCELL_ROW_27_180
*1338 TAP_TAPCELL_ROW_28_181
*1339 TAP_TAPCELL_ROW_28_182
*1340 TAP_TAPCELL_ROW_28_183
*1341 TAP_TAPCELL_ROW_29_184
*1342 TAP_TAPCELL_ROW_29_185
*1343 TAP_TAPCELL_ROW_29_186
*1344 TAP_TAPCELL_ROW_2_103
*1345 TAP_TAPCELL_ROW_2_104
*1346 TAP_TAPCELL_ROW_2_105
*1347 TAP_TAPCELL_ROW_30_187
*1348 TAP_TAPCELL_ROW_30_188
*1349 TAP_TAPCELL_ROW_30_189
*1350 TAP_TAPCELL_ROW_31_190
*1351 TAP_TAPCELL_ROW_31_191
*1352 TAP_TAPCELL_ROW_31_192
*1353 TAP_TAPCELL_ROW_32_193
*1354 TAP_TAPCELL_ROW_32_194
*1355 TAP_TAPCELL_ROW_32_195
*1356 TAP_TAPCELL_ROW_33_196
*1357 TAP_TAPCELL_ROW_33_197
*1358 TAP_TAPCELL_ROW_33_198
*1359 TAP_TAPCELL_ROW_34_199
*1360 TAP_TAPCELL_ROW_34_200
*1361 TAP_TAPCELL_ROW_34_201
*1362 TAP_TAPCELL_ROW_35_202
*1363 TAP_TAPCELL_ROW_35_203
*1364 TAP_TAPCELL_ROW_35_204
*1365 TAP_TAPCELL_ROW_36_205
*1366 TAP_TAPCELL_ROW_36_206
*1367 TAP_TAPCELL_ROW_36_207
*1368 TAP_TAPCELL_ROW_37_208
*1369 TAP_TAPCELL_ROW_37_209
*1370 TAP_TAPCELL_ROW_37_210
*1371 TAP_TAPCELL_ROW_38_211
*1372 TAP_TAPCELL_ROW_38_212
*1373 TAP_TAPCELL_ROW_38_213
*1374 TAP_TAPCELL_ROW_39_214
*1375 TAP_TAPCELL_ROW_39_215
*1376 TAP_TAPCELL_ROW_39_216
*1377 TAP_TAPCELL_ROW_3_106
*1378 TAP_TAPCELL_ROW_3_107
*1379 TAP_TAPCELL_ROW_3_108
*1380 TAP_TAPCELL_ROW_40_217
*1381 TAP_TAPCELL_ROW_40_218
*1382 TAP_TAPCELL_ROW_40_219
*1383 TAP_TAPCELL_ROW_41_220
*1384 TAP_TAPCELL_ROW_41_221
*1385 TAP_TAPCELL_ROW_41_222
*1386 TAP_TAPCELL_ROW_42_223
*1387 TAP_TAPCELL_ROW_42_224
*1388 TAP_TAPCELL_ROW_42_225
*1389 TAP_TAPCELL_ROW_43_226
*1390 TAP_TAPCELL_ROW_43_227
*1391 TAP_TAPCELL_ROW_43_228
*1392 TAP_TAPCELL_ROW_44_229
*1393 TAP_TAPCELL_ROW_44_230
*1394 TAP_TAPCELL_ROW_44_231
*1395 TAP_TAPCELL_ROW_45_232
*1396 TAP_TAPCELL_ROW_45_233
*1397 TAP_TAPCELL_ROW_45_234
*1398 TAP_TAPCELL_ROW_46_235
*1399 TAP_TAPCELL_ROW_46_236
*1400 TAP_TAPCELL_ROW_46_237
*1401 TAP_TAPCELL_ROW_46_238
*1402 TAP_TAPCELL_ROW_46_239
*1403 TAP_TAPCELL_ROW_46_240
*1404 TAP_TAPCELL_ROW_4_109
*1405 TAP_TAPCELL_ROW_4_110
*1406 TAP_TAPCELL_ROW_4_111
*1407 TAP_TAPCELL_ROW_5_112
*1408 TAP_TAPCELL_ROW_5_113
*1409 TAP_TAPCELL_ROW_5_114
*1410 TAP_TAPCELL_ROW_6_115
*1411 TAP_TAPCELL_ROW_6_116
*1412 TAP_TAPCELL_ROW_6_117
*1413 TAP_TAPCELL_ROW_7_118
*1414 TAP_TAPCELL_ROW_7_119
*1415 TAP_TAPCELL_ROW_7_120
*1416 TAP_TAPCELL_ROW_8_121
*1417 TAP_TAPCELL_ROW_8_122
*1418 TAP_TAPCELL_ROW_8_123
*1419 TAP_TAPCELL_ROW_9_124
*1420 TAP_TAPCELL_ROW_9_125
*1421 TAP_TAPCELL_ROW_9_126
*1422 _234_
*1423 _235_
*1424 _236_
*1425 _237_
*1426 _238_
*1427 _239_
*1428 _240_
*1429 _241_
*1430 _242_
*1431 _243_
*1432 _244_
*1433 _245_
*1434 _246_
*1435 _247_
*1436 _248_
*1437 _249_
*1438 _250_
*1439 _251_
*1440 _252_
*1441 _253_
*1442 _254_
*1443 _255_
*1444 _256_
*1445 _257_
*1446 _258_
*1447 _259_
*1448 _260_
*1449 _261_
*1450 _262_
*1451 _263_
*1452 _264_
*1453 _265_
*1454 _266_
*1455 _267_
*1456 _268_
*1457 _269_
*1458 _270_
*1459 _271_
*1460 _272_
*1461 _273_
*1462 _274_
*1463 _275_
*1464 _276_
*1465 _277_
*1466 _278_
*1467 _279_
*1468 _280_
*1469 _281_
*1470 _282_
*1471 _283_
*1472 _284_
*1473 _285_
*1474 _286_
*1475 _287_
*1476 _288_
*1477 _289_
*1478 _290_
*1479 _291_
*1480 _292_
*1481 _293_
*1482 _294_
*1483 _295_
*1484 _296_
*1485 _297_
*1486 _298_
*1487 _299_
*1488 _300_
*1489 _301_
*1490 _302_
*1491 _303_
*1492 _304_
*1493 _305_
*1494 _306_
*1495 _307_
*1496 _308_
*1497 _309_
*1498 _310_
*1499 _311_
*1500 _312_
*1501 _313_
*1502 _314_
*1503 _315_
*1504 _316_
*1505 _317_
*1506 _318_
*1507 _319_
*1508 _320_
*1509 _321_
*1510 _322_
*1511 _323_
*1512 _324_
*1513 _325_
*1514 _326_
*1515 _327_
*1516 _328_
*1517 _329_
*1518 _330_
*1519 _331_
*1520 _332_
*1521 _333_
*1522 _334_
*1523 _335_
*1524 _336_
*1525 _337_
*1526 _338_
*1527 _339_
*1528 _340_
*1529 _341_
*1530 _342_
*1531 _343_
*1532 _344_
*1533 _345_
*1534 _346_
*1535 _347_
*1536 _348_
*1537 _349_
*1538 _350_
*1539 _351_
*1540 _352_
*1541 _353_
*1542 _354_
*1543 _355_
*1544 _356_
*1545 _357_
*1546 _358_
*1547 _359_