*SPEF "ieee 1481-1999"
*DESIGN "project1"
*DATE "17:38:01 Monday April 21, 2025"
*VENDOR "The OpenROAD Project"
*PROGRAM "OpenROAD"
*VERSION "b16bda7e82721d10566ff7e2b68f1ff0be9f9e38"
*DESIGN_FLOW "NAME_SCOPE LOCAL" "PIN_CAP NONE"
*DIVIDER /
*DELIMITER :
*BUS_DELIMITER []
*T_UNIT 1 NS
*C_UNIT 1 PF
*R_UNIT 1 OHM
*L_UNIT 1 HENRY

*NAME_MAP
*3 in[0]
*4 in[1]
*5 in[2]
*6 in[3]
*7 in[4]
*8 in[5]
*9 in[6]
*10 in[7]
*11 out[0]
*12 out[1]
*13 out[2]
*14 out[3]
*15 out[4]
*16 out[5]
*17 out[6]
*18 out[7]
*19 _00_
*20 _01_
*21 _02_
*22 _03_
*23 _04_
*24 _05_
*25 _06_
*26 _07_
*27 _08_
*28 _09_
*29 net1
*30 net10
*31 net11
*32 net12
*33 net13
*34 net14
*35 net15
*36 net16
*37 net2
*38 net3
*39 net4
*40 net5
*41 net6
*42 net7
*43 net8
*44 net9
*45 FILLER_0_0_21
*46 FILLER_0_0_27
*47 FILLER_0_0_29
*48 FILLER_0_0_37
*49 FILLER_0_0_9
*50 FILLER_0_10_18
*51 FILLER_0_10_26
*52 FILLER_0_10_29
*53 FILLER_0_10_41
*54 FILLER_0_10_6
*55 FILLER_0_11_15
*56 FILLER_0_11_27
*57 FILLER_0_11_3
*58 FILLER_0_11_35
*59 FILLER_0_11_42
*60 FILLER_0_12_21
*61 FILLER_0_12_27
*62 FILLER_0_12_29
*63 FILLER_0_12_33
*64 FILLER_0_12_41
*65 FILLER_0_12_9
*66 FILLER_0_1_15
*67 FILLER_0_1_21
*68 FILLER_0_1_3
*69 FILLER_0_1_33
*70 FILLER_0_1_45
*71 FILLER_0_2_15
*72 FILLER_0_2_27
*73 FILLER_0_2_29
*74 FILLER_0_2_3
*75 FILLER_0_2_41
*76 FILLER_0_2_47
*77 FILLER_0_3_18
*78 FILLER_0_3_30
*79 FILLER_0_3_42
*80 FILLER_0_3_6
*81 FILLER_0_4_15
*82 FILLER_0_4_23
*83 FILLER_0_4_27
*84 FILLER_0_4_3
*85 FILLER_0_4_35
*86 FILLER_0_4_47
*87 FILLER_0_5_16
*88 FILLER_0_5_31
*89 FILLER_0_5_37
*90 FILLER_0_5_43
*91 FILLER_0_5_9
*92 FILLER_0_6_11
*93 FILLER_0_6_23
*94 FILLER_0_6_27
*95 FILLER_0_6_29
*96 FILLER_0_6_3
*97 FILLER_0_6_41
*98 FILLER_0_6_47
*99 FILLER_0_7_13
*100 FILLER_0_7_25
*101 FILLER_0_7_3
*102 FILLER_0_7_36
*103 FILLER_0_7_9
*104 FILLER_0_8_18
*105 FILLER_0_8_26
*106 FILLER_0_8_36
*107 FILLER_0_8_6
*108 FILLER_0_9_15
*109 FILLER_0_9_26
*110 FILLER_0_9_3
*111 FILLER_0_9_34
*112 FILLER_0_9_46
*113 PHY_EDGE_ROW_0_Left_13
*114 PHY_EDGE_ROW_0_Right_0
*115 PHY_EDGE_ROW_10_Left_23
*116 PHY_EDGE_ROW_10_Right_10
*117 PHY_EDGE_ROW_11_Left_24
*118 PHY_EDGE_ROW_11_Right_11
*119 PHY_EDGE_ROW_12_Left_25
*120 PHY_EDGE_ROW_12_Right_12
*121 PHY_EDGE_ROW_1_Left_14
*122 PHY_EDGE_ROW_1_Right_1
*123 PHY_EDGE_ROW_2_Left_15
*124 PHY_EDGE_ROW_2_Right_2
*125 PHY_EDGE_ROW_3_Left_16
*126 PHY_EDGE_ROW_3_Right_3
*127 PHY_EDGE_ROW_4_Left_17
*128 PHY_EDGE_ROW_4_Right_4
*129 PHY_EDGE_ROW_5_Left_18
*130 PHY_EDGE_ROW_5_Right_5
*131 PHY_EDGE_ROW_6_Left_19
*132 PHY_EDGE_ROW_6_Right_6
*133 PHY_EDGE_ROW_7_Left_20
*134 PHY_EDGE_ROW_7_Right_7
*135 PHY_EDGE_ROW_8_Left_21
*136 PHY_EDGE_ROW_8_Right_8
*137 PHY_EDGE_ROW_9_Left_22
*138 PHY_EDGE_ROW_9_Right_9
*139 TAP_TAPCELL_ROW_0_26
*140 TAP_TAPCELL_ROW_10_31
*141 TAP_TAPCELL_ROW_12_32
*142 TAP_TAPCELL_ROW_2_27
*143 TAP_TAPCELL_ROW_4_28
*144 TAP_TAPCELL_ROW_6_29
*145 TAP_TAPCELL_ROW_8_30
*146 _10_
*147 _11_
*148 _12_
*149 _13_
*150 _14_
*151 _15_
*152 _16_
*153 _17_
*154 _18_
*155 _19_
*156 _20_
*157 _21_
*158 _22_
*159 _23_
*160 _24_
*161 _25_
*162 _26_
*163 _27_
*164 input1
*165 input2
*166 input3
*167 input4
*168 input5
*169 input6
*170 input7
*171 input8
*172 output10
*173 output11
*174 output12
*175 output13
*176 output14
*177 output15
*178 output16
*179 output9

*PORTS
in[0] I
in[1] I
in[2] I
in[3] I
in[4] I
in[5] I
in[6] I
in[7] I
out[0] O
out[1] O
out[2] O
out[3] O
out[4] O
out[5] O
out[6] O
out[7] O

*D_NET *3 0.00108348
*CONN
*P in[0] I
*I *164:A I *D sky130_fd_sc_hd__buf_1
*CAP
1 in[0] 0.000541738
2 *164:A 0.000541738
3 *164:A *165:A 0
*RES
1 in[0] *164:A 24.4979 
*END

*D_NET *4 0.000806817
*CONN
*P in[1] I
*I *165:A I *D sky130_fd_sc_hd__buf_1
*CAP
1 in[1] 0.000392038
2 *165:A 0.000392038
3 *165:A *166:A 0
4 *165:A *29:10 2.27416e-05
5 *164:A *165:A 0
*RES
1 in[1] *165:A 22.141 
*END

*D_NET *5 0.000572832
*CONN
*P in[2] I
*I *166:A I *D sky130_fd_sc_hd__buf_1
*CAP
1 in[2] 0.000286416
2 *166:A 0.000286416
3 *166:A *167:A 0
4 *165:A *166:A 0
*RES
1 in[2] *166:A 20.4803 
*END

*D_NET *6 0.000694675
*CONN
*P in[3] I
*I *167:A I *D sky130_fd_sc_hd__clkbuf_1
*CAP
1 in[3] 0.000347337
2 *167:A 0.000347337
3 *167:A *148:A3 0
4 *167:A *148:B1 0
5 *167:A *168:A 0
6 *166:A *167:A 0
*RES
1 in[3] *167:A 21.6946 
*END

*D_NET *7 0.000816267
*CONN
*P in[4] I
*I *168:A I *D sky130_fd_sc_hd__buf_1
*CAP
1 in[4] 0.000340979
2 *168:A 0.000340979
3 *168:A *154:A 3.48705e-05
4 *168:A *154:B 4.22908e-05
5 *168:A *169:A 0
6 *168:A *175:A 5.71472e-05
7 *167:A *168:A 0
*RES
1 in[4] *168:A 22.141 
*END

*D_NET *8 0.000715317
*CONN
*P in[5] I
*I *169:A I *D sky130_fd_sc_hd__buf_1
*CAP
1 in[5] 0.000357659
2 *169:A 0.000357659
3 *169:A *170:A 0
4 *168:A *169:A 0
*RES
1 in[5] *169:A 21.9981 
*END

*D_NET *9 0.000563768
*CONN
*P in[6] I
*I *170:A I *D sky130_fd_sc_hd__clkbuf_1
*CAP
1 in[6] 0.000281884
2 *170:A 0.000281884
3 *170:A *171:A 0
4 *169:A *170:A 0
*RES
1 in[6] *170:A 20.4803 
*END

*D_NET *10 0.00123174
*CONN
*P in[7] I
*I *171:A I *D sky130_fd_sc_hd__buf_1
*CAP
1 in[7] 0.000615872
2 *171:A 0.000615872
3 *170:A *171:A 0
*RES
1 in[7] *171:A 25.0176 
*END

*D_NET *11 0.00135273
*CONN
*P out[0] O
*I *179:X O *D sky130_fd_sc_hd__buf_2
*CAP
1 out[0] 0.000652964
2 *179:X 0.000652964
3 out[0] out[1] 2.11419e-05
4 out[0] *30:14 0
5 out[0] *34:12 2.56601e-05
*RES
1 *179:X out[0] 26.4794 
*END

*D_NET *12 0.000460159
*CONN
*P out[1] O
*I *172:X O *D sky130_fd_sc_hd__buf_2
*CAP
1 out[1] 0.000219509
2 *172:X 0.000219509
3 out[1] out[2] 0
4 out[0] out[1] 2.11419e-05
*RES
1 *172:X out[1] 18.1229 
*END

*D_NET *13 0.000446755
*CONN
*P out[2] O
*I *173:X O *D sky130_fd_sc_hd__buf_2
*CAP
1 out[2] 0.00021728
2 *173:X 0.00021728
3 out[2] out[3] 0
4 out[2] *34:12 1.21955e-05
5 out[1] out[2] 0
*RES
1 *173:X out[2] 18.1229 
*END

*D_NET *14 0.000598041
*CONN
*P out[3] O
*I *174:X O *D sky130_fd_sc_hd__buf_2
*CAP
1 out[3] 0.000267648
2 *174:X 0.000267648
3 out[3] out[4] 0
4 out[3] *34:12 6.27457e-05
5 out[2] out[3] 0
*RES
1 *174:X out[3] 19.3371 
*END

*D_NET *15 0.000440675
*CONN
*P out[4] O
*I *175:X O *D sky130_fd_sc_hd__buf_2
*CAP
1 out[4] 0.00021424
2 *175:X 0.00021424
3 out[4] out[5] 0
4 out[4] *34:12 1.21955e-05
5 out[3] out[4] 0
*RES
1 *175:X out[4] 18.1229 
*END

*D_NET *16 0.000586236
*CONN
*P out[5] O
*I *176:X O *D sky130_fd_sc_hd__buf_2
*CAP
1 out[5] 0.000271635
2 *176:X 0.000271635
3 out[5] out[6] 0
4 out[5] *36:12 4.29654e-05
5 out[4] out[5] 0
*RES
1 *176:X out[5] 19.3371 
*END

*D_NET *17 0.000760908
*CONN
*P out[6] O
*I *177:X O *D sky130_fd_sc_hd__buf_2
*CAP
1 out[6] 0.000380454
2 *177:X 0.000380454
3 out[6] out[7] 0
4 out[5] out[6] 0
*RES
1 *177:X out[6] 18.5553 
*END

*D_NET *18 0.00103775
*CONN
*P out[7] O
*I *178:X O *D sky130_fd_sc_hd__clkbuf_4
*CAP
1 out[7] 0.000518877
2 *178:X 0.000518877
3 out[6] out[7] 0
*RES
1 *178:X out[7] 24.4258 
*END

*D_NET *19 0.00318527
*CONN
*I *162:A I *D sky130_fd_sc_hd__nor2_1
*I *147:B I *D sky130_fd_sc_hd__xnor2_1
*I *146:Y O *D sky130_fd_sc_hd__nor2_1
*CAP
1 *162:A 0
2 *147:B 0.000284412
3 *146:Y 0.000153555
4 *19:8 0.000437967
5 *147:B *155:A 0.000330786
6 *147:B *158:A 0
7 *147:B *21:18 0.000123288
8 *147:B *25:8 0
9 *147:B *43:12 0.000553679
10 *19:8 *146:B 0.000228784
11 *19:8 *154:B 0.00010545
12 *19:8 *162:B 0.000269422
13 *19:8 *175:A 0.000697922
*RES
1 *146:Y *19:8 16.425 
2 *19:8 *147:B 27.8357 
3 *19:8 *162:A 9.3 
*END

*D_NET *20 0.00221775
*CONN
*I *150:A_N I *D sky130_fd_sc_hd__and2b_1
*I *148:X O *D sky130_fd_sc_hd__o31a_1
*CAP
1 *150:A_N 0.0007223
2 *148:X 0.0007223
3 *150:A_N *148:A2 0.000242918
4 *150:A_N *163:A 5.91336e-05
5 *150:A_N *179:A 0.000267377
6 *150:A_N *21:14 8.0786e-06
7 *150:A_N *25:8 6.74911e-05
8 *150:A_N *43:12 0.000128154
*RES
1 *148:X *150:A_N 38.4036 
*END

*D_NET *21 0.00526308
*CONN
*I *150:B I *D sky130_fd_sc_hd__and2b_1
*I *153:B I *D sky130_fd_sc_hd__and2_1
*I *156:D I *D sky130_fd_sc_hd__or4_1
*I *157:A3 I *D sky130_fd_sc_hd__o31ai_1
*I *152:B I *D sky130_fd_sc_hd__nor2_1
*I *149:X O *D sky130_fd_sc_hd__or4_2
*CAP
1 *150:B 9.19883e-05
2 *153:B 0.000238869
3 *156:D 0
4 *157:A3 0
5 *152:B 0.000253365
6 *149:X 0.000207999
7 *21:24 0.000425476
8 *21:18 0.000310547
9 *21:14 0.000690573
10 *21:8 0.000613256
11 *150:B *151:A 0.000142856
12 *150:B *174:A 9.99644e-06
13 *152:B *152:A 0.000150618
14 *152:B *157:A2 7.61109e-05
15 *152:B *40:10 4.80729e-05
16 *152:B *42:10 0
17 *153:B *153:A 5.52238e-05
18 *153:B *179:A 2.72887e-05
19 *153:B *25:8 6.97515e-05
20 *153:B *30:14 2.59355e-05
21 *153:B *43:12 0.000117893
22 *21:8 *155:A 0
23 *21:8 *155:B 0.000131553
24 *21:14 *155:A 0
25 *21:14 *155:B 8.17978e-05
26 *21:14 *163:A 6.05161e-06
27 *21:14 *179:A 3.55443e-05
28 *21:18 *155:A 0.000258797
29 *21:18 *41:21 7.05447e-05
30 *21:18 *43:12 0.000104077
31 *21:24 *157:A2 0.000294395
32 *21:24 *26:14 0.00018077
33 *21:24 *41:21 0.000227736
34 *21:24 *43:12 0.000184626
35 *147:B *21:18 0.000123288
36 *150:A_N *21:14 8.0786e-06
*RES
1 *149:X *21:8 18.4786 
2 *21:8 *21:14 9.53571 
3 *21:14 *21:18 8.875 
4 *21:18 *21:24 11.0536 
5 *21:24 *152:B 22.925 
6 *21:24 *157:A3 9.3 
7 *21:18 *156:D 13.8 
8 *21:14 *153:B 22.4964 
9 *21:8 *150:B 15.5679 
*END

*D_NET *22 0.00107637
*CONN
*I *151:A I *D sky130_fd_sc_hd__clkbuf_1
*I *150:X O *D sky130_fd_sc_hd__and2b_1
*CAP
1 *151:A 0.000345523
2 *150:X 0.000345523
3 *151:A *174:A 0.00024247
4 *150:B *151:A 0.000142856
*RES
1 *150:X *151:A 26.1357 
*END

*D_NET *23 0.00734685
*CONN
*I *155:B I *D sky130_fd_sc_hd__xnor2_1
*I *154:A I *D sky130_fd_sc_hd__nor2_1
*I *152:Y O *D sky130_fd_sc_hd__nor2_1
*CAP
1 *155:B 0.000835824
2 *154:A 0.000546001
3 *152:Y 0.000561414
4 *23:14 0.00194324
5 *154:A *154:B 0.000724419
6 *155:B *155:A 0.000318107
7 *155:B *29:10 0.000662986
8 *155:B *29:12 0.000531943
9 *155:B *29:14 0.000126439
10 *23:14 *152:A 0.000163304
11 *23:14 *154:B 8.57023e-05
12 *23:14 *155:A 0
13 *23:14 *156:C 0.000148465
14 *23:14 *162:B 0.000145753
15 *23:14 *29:14 1.09026e-05
16 *23:14 *40:10 0.000248391
17 *23:14 *41:21 0
18 *23:14 *42:10 4.57445e-05
19 *168:A *154:A 3.48705e-05
20 *21:8 *155:B 0.000131553
21 *21:14 *155:B 8.17978e-05
*RES
1 *152:Y *23:14 30.8536 
2 *23:14 *154:A 17.55 
3 *23:14 *155:B 40.6929 
*END

*D_NET *24 0.00251358
*CONN
*I *154:B I *D sky130_fd_sc_hd__nor2_1
*I *153:X O *D sky130_fd_sc_hd__and2_1
*CAP
1 *154:B 0.000313911
2 *153:X 0.000313911
3 *154:B *146:B 0.000228784
4 *154:B *153:A 6.05161e-06
5 *154:B *162:B 0.000269422
6 *154:B *175:A 6.17446e-05
7 *154:B *30:14 0.000135028
8 *154:B *37:16 0.000226867
9 *154:A *154:B 0.000724419
10 *168:A *154:B 4.22908e-05
11 *19:8 *154:B 0.00010545
12 *23:14 *154:B 8.57023e-05
*RES
1 *153:X *154:B 30.2429 
*END

*D_NET *25 0.00350759
*CONN
*I *158:A I *D sky130_fd_sc_hd__and2_1
*I *160:B I *D sky130_fd_sc_hd__xor2_1
*I *156:X O *D sky130_fd_sc_hd__or4_1
*CAP
1 *158:A 0.000392018
2 *160:B 5.38656e-05
3 *156:X 0.000255979
4 *25:8 0.000701863
5 *158:A *155:A 0
6 *158:A *173:A 0.000128154
7 *158:A *179:A 5.52302e-05
8 *158:A *26:14 0.000747155
9 *160:B *174:A 5.33005e-05
10 *25:8 *153:A 2.61337e-05
11 *25:8 *156:A 3.92757e-05
12 *25:8 *174:A 0.000126439
13 *25:8 *26:14 0.000718962
14 *25:8 *43:12 7.19752e-05
15 *147:B *158:A 0
16 *147:B *25:8 0
17 *150:A_N *25:8 6.74911e-05
18 *153:B *25:8 6.97515e-05
*RES
1 *156:X *25:8 23.0321 
2 *25:8 *160:B 14.7464 
3 *25:8 *158:A 23.9071 
*END

*D_NET *26 0.00451416
*CONN
*I *158:B I *D sky130_fd_sc_hd__and2_1
*I *157:Y O *D sky130_fd_sc_hd__o31ai_1
*CAP
1 *158:B 0
2 *157:Y 0.00106992
3 *26:14 0.00106992
4 *26:14 *155:A 0
5 *26:14 *156:A 3.01126e-05
6 *26:14 *159:A 0.000390718
7 *26:14 *177:A 0.000306602
8 *26:14 *30:14 0
9 *26:14 *43:12 0
10 *158:A *26:14 0.000747155
11 *21:24 *26:14 0.00018077
12 *25:8 *26:14 0.000718962
*RES
1 *157:Y *26:14 45.675 
2 *26:14 *158:B 9.3 
*END

*D_NET *27 0.00153097
*CONN
*I *159:A I *D sky130_fd_sc_hd__clkbuf_1
*I *158:X O *D sky130_fd_sc_hd__and2_1
*CAP
1 *159:A 0.000352687
2 *158:X 0.000352687
3 *159:A *174:A 7.43578e-06
4 *159:A *177:A 3.67257e-05
5 *159:A *30:14 0.000390718
6 *26:14 *159:A 0.000390718
*RES
1 *158:X *159:A 38.6 
*END

*D_NET *28 0.0010304
*CONN
*I *162:B I *D sky130_fd_sc_hd__nor2_1
*I *161:X O *D sky130_fd_sc_hd__and2_1
*CAP
1 *162:B 0.000115237
2 *161:X 0.000115237
3 *162:B *161:B 3.25078e-05
4 *162:B *29:14 4.46186e-06
5 *162:B *40:10 7.83587e-05
6 *154:B *162:B 0.000269422
7 *19:8 *162:B 0.000269422
8 *23:14 *162:B 0.000145753
*RES
1 *161:X *162:B 32.1357 
*END

*D_NET *29 0.00583597
*CONN
*I *149:B I *D sky130_fd_sc_hd__or4_2
*I *163:A I *D sky130_fd_sc_hd__clkbuf_1
*I *148:A2 I *D sky130_fd_sc_hd__o31a_1
*I *146:B I *D sky130_fd_sc_hd__nor2_1
*I *161:B I *D sky130_fd_sc_hd__and2_1
*I *164:X O *D sky130_fd_sc_hd__buf_1
*CAP
1 *149:B 0
2 *163:A 9.19034e-05
3 *148:A2 0.000283411
4 *146:B 3.43507e-05
5 *161:B 0.000128768
6 *164:X 0.000734061
7 *29:34 0.000375314
8 *29:14 0.000271538
9 *29:12 0.000355815
10 *29:10 0.000981457
11 *161:B *40:10 0.00015304
12 *29:10 *149:D 7.07214e-05
13 *29:12 *149:D 0.000197939
14 *150:A_N *148:A2 0.000242918
15 *150:A_N *163:A 5.91336e-05
16 *154:B *146:B 0.000228784
17 *155:B *29:10 0.000662986
18 *155:B *29:12 0.000531943
19 *155:B *29:14 0.000126439
20 *162:B *161:B 3.25078e-05
21 *162:B *29:14 4.46186e-06
22 *165:A *29:10 2.27416e-05
23 *19:8 *146:B 0.000228784
24 *21:14 *163:A 6.05161e-06
25 *23:14 *29:14 1.09026e-05
*RES
1 *164:X *29:10 28.7107 
2 *29:10 *29:12 6.80357 
3 *29:12 *29:14 2.25 
4 *29:14 *161:B 16.6571 
5 *29:14 *146:B 15.9786 
6 *29:12 *29:34 4.5 
7 *29:34 *148:A2 15.1929 
8 *29:34 *163:A 11.0679 
9 *29:10 *149:B 13.8 
*END

*D_NET *30 0.00384711
*CONN
*I *172:A I *D sky130_fd_sc_hd__buf_2
*I *162:Y O *D sky130_fd_sc_hd__nor2_1
*CAP
1 *172:A 0
2 *162:Y 0.000954091
3 *30:14 0.000954091
4 *30:14 *153:A 3.80195e-05
5 *30:14 *175:A 3.47797e-05
6 *30:14 *177:A 0.000268521
7 *30:14 *179:A 0.000943728
8 *30:14 *34:12 0.000102197
9 *30:14 *36:12 0
10 out[0] *30:14 0
11 *153:B *30:14 2.59355e-05
12 *154:B *30:14 0.000135028
13 *159:A *30:14 0.000390718
14 *26:14 *30:14 0
*RES
1 *162:Y *30:14 40.925 
2 *30:14 *172:A 9.3 
*END

*D_NET *31 0.000914736
*CONN
*I *173:A I *D sky130_fd_sc_hd__buf_2
*I *147:Y O *D sky130_fd_sc_hd__xnor2_1
*CAP
1 *173:A 0.000393291
2 *147:Y 0.000393291
3 *173:A *155:A 0
4 *158:A *173:A 0.000128154
*RES
1 *147:Y *173:A 33.8857 
*END

*D_NET *32 0.00285016
*CONN
*I *174:A I *D sky130_fd_sc_hd__buf_2
*I *151:X O *D sky130_fd_sc_hd__clkbuf_1
*CAP
1 *174:A 0.000995935
2 *151:X 0.000995935
3 *174:A *36:12 0.000351162
4 *174:A *43:12 6.74911e-05
5 *150:B *174:A 9.99644e-06
6 *151:A *174:A 0.00024247
7 *159:A *174:A 7.43578e-06
8 *160:B *174:A 5.33005e-05
9 *25:8 *174:A 0.000126439
*RES
1 *151:X *174:A 42.6357 
*END

*D_NET *33 0.0034329
*CONN
*I *175:A I *D sky130_fd_sc_hd__buf_2
*I *154:Y O *D sky130_fd_sc_hd__nor2_1
*CAP
1 *175:A 0.00061542
2 *154:Y 0.00061542
3 *175:A *153:A 0.000180777
4 *175:A *37:16 0.00012306
5 *175:A *40:6 0.000569933
6 *175:A *40:34 0.000476696
7 *154:B *175:A 6.17446e-05
8 *168:A *175:A 5.71472e-05
9 *19:8 *175:A 0.000697922
10 *30:14 *175:A 3.47797e-05
*RES
1 *154:Y *175:A 35.475 
*END

*D_NET *34 0.00332367
*CONN
*I *176:A I *D sky130_fd_sc_hd__buf_2
*I *155:Y O *D sky130_fd_sc_hd__xnor2_1
*CAP
1 *176:A 0
2 *155:Y 0.00106675
3 *34:12 0.00106675
4 *34:12 *179:A 0
5 *34:12 *36:12 0.000975181
6 out[0] *34:12 2.56601e-05
7 out[2] *34:12 1.21955e-05
8 out[3] *34:12 6.27457e-05
9 out[4] *34:12 1.21955e-05
10 *30:14 *34:12 0.000102197
*RES
1 *155:Y *34:12 41.1393 
2 *34:12 *176:A 9.3 
*END

*D_NET *35 0.00229274
*CONN
*I *177:A I *D sky130_fd_sc_hd__buf_2
*I *159:X O *D sky130_fd_sc_hd__clkbuf_1
*CAP
1 *177:A 0.000840445
2 *159:X 0.000840445
3 *177:A *36:12 0
4 *177:A *43:12 0
5 *159:A *177:A 3.67257e-05
6 *26:14 *177:A 0.000306602
7 *30:14 *177:A 0.000268521
*RES
1 *159:X *177:A 45.475 
*END

*D_NET *36 0.00340855
*CONN
*I *178:A I *D sky130_fd_sc_hd__clkbuf_4
*I *160:X O *D sky130_fd_sc_hd__xor2_1
*CAP
1 *178:A 0
2 *160:X 0.000952432
3 *36:12 0.000952432
4 *36:12 *179:A 0.00013438
5 out[5] *36:12 4.29654e-05
6 *174:A *36:12 0.000351162
7 *177:A *36:12 0
8 *30:14 *36:12 0
9 *34:12 *36:12 0.000975181
*RES
1 *160:X *36:12 41.5679 
2 *36:12 *178:A 9.3 
*END

*D_NET *37 0.00406975
*CONN
*I *149:A I *D sky130_fd_sc_hd__or4_2
*I *148:A1 I *D sky130_fd_sc_hd__o31a_1
*I *146:A I *D sky130_fd_sc_hd__nor2_1
*I *161:A I *D sky130_fd_sc_hd__and2_1
*I *165:X O *D sky130_fd_sc_hd__buf_1
*CAP
1 *149:A 0.000335971
2 *148:A1 0
3 *146:A 0
4 *161:A 0.000294918
5 *165:X 0.000333086
6 *37:16 0.000484844
7 *37:10 0.000534392
8 *37:8 0.00101352
9 *149:A *147:A 4.87953e-05
10 *149:A *38:23 0.00028401
11 *37:8 *38:10 4.75715e-05
12 *37:10 *148:A3 0.000290924
13 *37:10 *148:B1 1.5942e-05
14 *37:10 *38:10 3.17163e-05
15 *37:16 *148:B1 4.1331e-06
16 *154:B *37:16 0.000226867
17 *175:A *37:16 0.00012306
*RES
1 *165:X *37:8 19.9964 
2 *37:8 *37:10 8.01786 
3 *37:10 *37:16 8.92857 
4 *37:16 *161:A 23.0321 
5 *37:16 *146:A 9.3 
6 *37:10 *148:A1 13.8 
7 *37:8 *149:A 20.1036 
*END

*D_NET *38 0.00278163
*CONN
*I *147:A I *D sky130_fd_sc_hd__xnor2_1
*I *149:C I *D sky130_fd_sc_hd__or4_2
*I *148:A3 I *D sky130_fd_sc_hd__o31a_1
*I *166:X O *D sky130_fd_sc_hd__buf_1
*CAP
1 *147:A 0.000254117
2 *149:C 0
3 *148:A3 0.000209465
4 *166:X 0.000139024
5 *38:23 0.00054204
6 *38:10 0.000636411
7 *148:A3 *148:B1 0.000297552
8 *149:A *147:A 4.87953e-05
9 *149:A *38:23 0.00028401
10 *167:A *148:A3 0
11 *37:8 *38:10 4.75715e-05
12 *37:10 *148:A3 0.000290924
13 *37:10 *38:10 3.17163e-05
*RES
1 *166:X *38:10 16.2821 
2 *38:10 *148:A3 20.6036 
3 *38:10 *38:23 10.375 
4 *38:23 *149:C 9.3 
5 *38:23 *147:A 13.55 
*END

*D_NET *39 0.00225481
*CONN
*I *149:D I *D sky130_fd_sc_hd__or4_2
*I *148:B1 I *D sky130_fd_sc_hd__o31a_1
*I *167:X O *D sky130_fd_sc_hd__clkbuf_1
*CAP
1 *149:D 0.000675311
2 *148:B1 0.000158951
3 *167:X 0
4 *39:4 0.000834262
5 *148:A3 *148:B1 0.000297552
6 *167:A *148:B1 0
7 *29:10 *149:D 7.07214e-05
8 *29:12 *149:D 0.000197939
9 *37:10 *148:B1 1.5942e-05
10 *37:16 *148:B1 4.1331e-06
*RES
1 *167:X *39:4 9.3 
2 *39:4 *148:B1 22.675 
3 *39:4 *149:D 27.6393 
*END

*D_NET *40 0.0049146
*CONN
*I *153:A I *D sky130_fd_sc_hd__and2_1
*I *156:A I *D sky130_fd_sc_hd__or4_1
*I *157:A1 I *D sky130_fd_sc_hd__o31ai_1
*I *152:A I *D sky130_fd_sc_hd__nor2_1
*I *168:X O *D sky130_fd_sc_hd__buf_1
*CAP
1 *153:A 7.56343e-05
2 *156:A 4.84657e-05
3 *157:A1 0
4 *152:A 0.000144929
5 *168:X 0.000390272
6 *40:34 0.000460286
7 *40:10 0.000374892
8 *40:6 0.000956422
9 *153:A *43:12 4.66511e-05
10 *156:A *43:12 0.00015304
11 *152:B *152:A 0.000150618
12 *152:B *40:10 4.80729e-05
13 *153:B *153:A 5.52238e-05
14 *154:B *153:A 6.05161e-06
15 *161:B *40:10 0.00015304
16 *162:B *40:10 7.83587e-05
17 *175:A *153:A 0.000180777
18 *175:A *40:6 0.000569933
19 *175:A *40:34 0.000476696
20 *23:14 *152:A 0.000163304
21 *23:14 *40:10 0.000248391
22 *25:8 *153:A 2.61337e-05
23 *25:8 *156:A 3.92757e-05
24 *26:14 *156:A 3.01126e-05
25 *30:14 *153:A 3.80195e-05
*RES
1 *168:X *40:6 14.7643 
2 *40:6 *40:10 11.3036 
3 *40:10 *152:A 17.5321 
4 *40:10 *157:A1 13.8 
5 *40:6 *40:34 9.14286 
6 *40:34 *156:A 15.7464 
7 *40:34 *153:A 16.3 
*END

*D_NET *41 0.00586624
*CONN
*I *155:A I *D sky130_fd_sc_hd__xnor2_1
*I *156:B I *D sky130_fd_sc_hd__or4_1
*I *157:A2 I *D sky130_fd_sc_hd__o31ai_1
*I *169:X O *D sky130_fd_sc_hd__buf_1
*CAP
1 *155:A 0.0010577
2 *156:B 4.70928e-05
3 *157:A2 0.000169149
4 *169:X 0.000664451
5 *41:21 0.00119288
6 *41:8 0.000921684
7 *156:B *156:C 2.59355e-05
8 *157:A2 *156:C 7.2754e-05
9 *157:A2 *43:12 6.8646e-06
10 *41:21 *156:C 0.000131247
11 *147:B *155:A 0.000330786
12 *152:B *157:A2 7.61109e-05
13 *155:B *155:A 0.000318107
14 *158:A *155:A 0
15 *173:A *155:A 0
16 *21:8 *155:A 0
17 *21:14 *155:A 0
18 *21:18 *155:A 0.000258797
19 *21:18 *41:21 7.05447e-05
20 *21:24 *157:A2 0.000294395
21 *21:24 *41:21 0.000227736
22 *23:14 *155:A 0
23 *23:14 *41:21 0
24 *26:14 *155:A 0
*RES
1 *169:X *41:8 23.3714 
2 *41:8 *157:A2 18.1304 
3 *41:8 *41:21 3.76786 
4 *41:21 *156:B 14.3357 
5 *41:21 *155:A 35.8536 
*END

*D_NET *42 0.00343549
*CONN
*I *156:C I *D sky130_fd_sc_hd__or4_1
*I *157:B1 I *D sky130_fd_sc_hd__o31ai_1
*I *170:X O *D sky130_fd_sc_hd__clkbuf_1
*CAP
1 *156:C 0.000283053
2 *157:B1 0
3 *170:X 0.00082368
4 *42:10 0.00110673
5 *156:C *43:12 0
6 *42:10 *43:12 0.000797885
7 *152:B *42:10 0
8 *156:B *156:C 2.59355e-05
9 *157:A2 *156:C 7.2754e-05
10 *23:14 *156:C 0.000148465
11 *23:14 *42:10 4.57445e-05
12 *41:21 *156:C 0.000131247
*RES
1 *170:X *42:10 26.6214 
2 *42:10 *157:B1 13.8 
3 *42:10 *156:C 20.8536 
*END

*D_NET *43 0.00447862
*CONN
*I *160:A I *D sky130_fd_sc_hd__xor2_1
*I *171:X O *D sky130_fd_sc_hd__buf_1
*CAP
1 *160:A 0
2 *171:X 0.00112315
3 *43:12 0.00112315
4 *147:B *43:12 0.000553679
5 *150:A_N *43:12 0.000128154
6 *153:A *43:12 4.66511e-05
7 *153:B *43:12 0.000117893
8 *156:A *43:12 0.00015304
9 *156:C *43:12 0
10 *157:A2 *43:12 6.8646e-06
11 *174:A *43:12 6.74911e-05
12 *177:A *43:12 0
13 *21:18 *43:12 0.000104077
14 *21:24 *43:12 0.000184626
15 *25:8 *43:12 7.19752e-05
16 *26:14 *43:12 0
17 *42:10 *43:12 0.000797885
*RES
1 *171:X *43:12 46.8179 
2 *43:12 *160:A 9.3 
*END

*D_NET *44 0.00316062
*CONN
*I *179:A I *D sky130_fd_sc_hd__buf_2
*I *163:X O *D sky130_fd_sc_hd__clkbuf_1
*CAP
1 *179:A 0.000848534
2 *163:X 0.000848534
3 *150:A_N *179:A 0.000267377
4 *153:B *179:A 2.72887e-05
5 *158:A *179:A 5.52302e-05
6 *21:14 *179:A 3.55443e-05
7 *30:14 *179:A 0.000943728
8 *34:12 *179:A 0
9 *36:12 *179:A 0.00013438
*RES
1 *163:X *179:A 47.2071 
*END
