* NGSPICE file created from project2.ext - technology: sky130A

* Black-box entry subcircuit for sky130_fd_sc_hd__tapvpwrvgnd_1 abstract view
.subckt sky130_fd_sc_hd__tapvpwrvgnd_1 VGND VPWR
.ends

* Black-box entry subcircuit for sky130_fd_sc_hd__fill_1 abstract view
.subckt sky130_fd_sc_hd__fill_1 VGND VNB VPB VPWR
.ends

* Black-box entry subcircuit for sky130_ef_sc_hd__decap_12 abstract view
.subckt sky130_ef_sc_hd__decap_12 VPWR VGND VPB VNB
.ends

* Black-box entry subcircuit for sky130_fd_sc_hd__buf_2 abstract view
.subckt sky130_fd_sc_hd__buf_2 A VGND VNB VPB VPWR X
.ends

* Black-box entry subcircuit for sky130_fd_sc_hd__nand2_2 abstract view
.subckt sky130_fd_sc_hd__nand2_2 A B VGND VNB VPB VPWR Y
.ends

* Black-box entry subcircuit for sky130_fd_sc_hd__a21o_4 abstract view
.subckt sky130_fd_sc_hd__a21o_4 A1 A2 B1 VGND VNB VPB VPWR X
.ends

* Black-box entry subcircuit for sky130_fd_sc_hd__a21oi_2 abstract view
.subckt sky130_fd_sc_hd__a21oi_2 A1 A2 B1 VGND VNB VPB VPWR Y
.ends

* Black-box entry subcircuit for sky130_fd_sc_hd__fill_2 abstract view
.subckt sky130_fd_sc_hd__fill_2 VGND VNB VPB VPWR
.ends

* Black-box entry subcircuit for sky130_fd_sc_hd__nand3_2 abstract view
.subckt sky130_fd_sc_hd__nand3_2 A B C VGND VNB VPB VPWR Y
.ends

* Black-box entry subcircuit for sky130_fd_sc_hd__decap_4 abstract view
.subckt sky130_fd_sc_hd__decap_4 VGND VNB VPB VPWR
.ends

* Black-box entry subcircuit for sky130_fd_sc_hd__nor2_2 abstract view
.subckt sky130_fd_sc_hd__nor2_2 A B VGND VNB VPB VPWR Y
.ends

* Black-box entry subcircuit for sky130_fd_sc_hd__o2bb2a_1 abstract view
.subckt sky130_fd_sc_hd__o2bb2a_1 A1_N A2_N B1 B2 VGND VNB VPB VPWR X
.ends

* Black-box entry subcircuit for sky130_fd_sc_hd__decap_6 abstract view
.subckt sky130_fd_sc_hd__decap_6 VGND VNB VPB VPWR
.ends

* Black-box entry subcircuit for sky130_fd_sc_hd__or3_1 abstract view
.subckt sky130_fd_sc_hd__or3_1 A B C VGND VNB VPB VPWR X
.ends

* Black-box entry subcircuit for sky130_fd_sc_hd__decap_3 abstract view
.subckt sky130_fd_sc_hd__decap_3 VGND VNB VPB VPWR
.ends

* Black-box entry subcircuit for sky130_fd_sc_hd__decap_8 abstract view
.subckt sky130_fd_sc_hd__decap_8 VGND VNB VPB VPWR
.ends

* Black-box entry subcircuit for sky130_fd_sc_hd__diode_2 abstract view
.subckt sky130_fd_sc_hd__diode_2 DIODE VGND VNB VPB VPWR
.ends

* Black-box entry subcircuit for sky130_fd_sc_hd__and2_1 abstract view
.subckt sky130_fd_sc_hd__and2_1 A B VGND VNB VPB VPWR X
.ends

* Black-box entry subcircuit for sky130_fd_sc_hd__clkbuf_4 abstract view
.subckt sky130_fd_sc_hd__clkbuf_4 A VGND VNB VPB VPWR X
.ends

* Black-box entry subcircuit for sky130_fd_sc_hd__dlymetal6s2s_1 abstract view
.subckt sky130_fd_sc_hd__dlymetal6s2s_1 A VGND VNB VPB VPWR X
.ends

* Black-box entry subcircuit for sky130_fd_sc_hd__a311o_1 abstract view
.subckt sky130_fd_sc_hd__a311o_1 A1 A2 A3 B1 C1 VGND VNB VPB VPWR X
.ends

* Black-box entry subcircuit for sky130_fd_sc_hd__a21o_1 abstract view
.subckt sky130_fd_sc_hd__a21o_1 A1 A2 B1 VGND VNB VPB VPWR X
.ends

* Black-box entry subcircuit for sky130_fd_sc_hd__a21oi_1 abstract view
.subckt sky130_fd_sc_hd__a21oi_1 A1 A2 B1 VGND VNB VPB VPWR Y
.ends

* Black-box entry subcircuit for sky130_fd_sc_hd__nor3_2 abstract view
.subckt sky130_fd_sc_hd__nor3_2 A B C VGND VNB VPB VPWR Y
.ends

* Black-box entry subcircuit for sky130_fd_sc_hd__and2_4 abstract view
.subckt sky130_fd_sc_hd__and2_4 A B VGND VNB VPB VPWR X
.ends

* Black-box entry subcircuit for sky130_fd_sc_hd__or3b_1 abstract view
.subckt sky130_fd_sc_hd__or3b_1 A B C_N VGND VNB VPB VPWR X
.ends

* Black-box entry subcircuit for sky130_fd_sc_hd__a22o_4 abstract view
.subckt sky130_fd_sc_hd__a22o_4 A1 A2 B1 B2 VGND VNB VPB VPWR X
.ends

* Black-box entry subcircuit for sky130_fd_sc_hd__o22a_1 abstract view
.subckt sky130_fd_sc_hd__o22a_1 A1 A2 B1 B2 VGND VNB VPB VPWR X
.ends

* Black-box entry subcircuit for sky130_fd_sc_hd__o21ai_1 abstract view
.subckt sky130_fd_sc_hd__o21ai_1 A1 A2 B1 VGND VNB VPB VPWR Y
.ends

* Black-box entry subcircuit for sky130_fd_sc_hd__xnor2_2 abstract view
.subckt sky130_fd_sc_hd__xnor2_2 A B VGND VNB VPB VPWR Y
.ends

* Black-box entry subcircuit for sky130_fd_sc_hd__o21a_4 abstract view
.subckt sky130_fd_sc_hd__o21a_4 A1 A2 B1 VGND VNB VPB VPWR X
.ends

* Black-box entry subcircuit for sky130_fd_sc_hd__buf_12 abstract view
.subckt sky130_fd_sc_hd__buf_12 A VGND VNB VPB VPWR X
.ends

* Black-box entry subcircuit for sky130_fd_sc_hd__or2_1 abstract view
.subckt sky130_fd_sc_hd__or2_1 A B VGND VNB VPB VPWR X
.ends

* Black-box entry subcircuit for sky130_fd_sc_hd__and2_2 abstract view
.subckt sky130_fd_sc_hd__and2_2 A B VGND VNB VPB VPWR X
.ends

* Black-box entry subcircuit for sky130_fd_sc_hd__o211a_1 abstract view
.subckt sky130_fd_sc_hd__o211a_1 A1 A2 B1 C1 VGND VNB VPB VPWR X
.ends

* Black-box entry subcircuit for sky130_fd_sc_hd__nand4_4 abstract view
.subckt sky130_fd_sc_hd__nand4_4 A B C D VGND VNB VPB VPWR Y
.ends

* Black-box entry subcircuit for sky130_fd_sc_hd__and4b_2 abstract view
.subckt sky130_fd_sc_hd__and4b_2 A_N B C D VGND VNB VPB VPWR X
.ends

* Black-box entry subcircuit for sky130_fd_sc_hd__nor2_1 abstract view
.subckt sky130_fd_sc_hd__nor2_1 A B VGND VNB VPB VPWR Y
.ends

* Black-box entry subcircuit for sky130_fd_sc_hd__and4_1 abstract view
.subckt sky130_fd_sc_hd__and4_1 A B C D VGND VNB VPB VPWR X
.ends

* Black-box entry subcircuit for sky130_fd_sc_hd__a22o_1 abstract view
.subckt sky130_fd_sc_hd__a22o_1 A1 A2 B1 B2 VGND VNB VPB VPWR X
.ends

* Black-box entry subcircuit for sky130_fd_sc_hd__o31a_1 abstract view
.subckt sky130_fd_sc_hd__o31a_1 A1 A2 A3 B1 VGND VNB VPB VPWR X
.ends

* Black-box entry subcircuit for sky130_fd_sc_hd__a221oi_2 abstract view
.subckt sky130_fd_sc_hd__a221oi_2 A1 A2 B1 B2 C1 VGND VNB VPB VPWR Y
.ends

* Black-box entry subcircuit for sky130_fd_sc_hd__clkbuf_8 abstract view
.subckt sky130_fd_sc_hd__clkbuf_8 A VGND VNB VPB VPWR X
.ends

* Black-box entry subcircuit for sky130_fd_sc_hd__a22oi_1 abstract view
.subckt sky130_fd_sc_hd__a22oi_1 A1 A2 B1 B2 VGND VNB VPB VPWR Y
.ends

* Black-box entry subcircuit for sky130_fd_sc_hd__o21a_1 abstract view
.subckt sky130_fd_sc_hd__o21a_1 A1 A2 B1 VGND VNB VPB VPWR X
.ends

* Black-box entry subcircuit for sky130_fd_sc_hd__buf_4 abstract view
.subckt sky130_fd_sc_hd__buf_4 A VGND VNB VPB VPWR X
.ends

* Black-box entry subcircuit for sky130_fd_sc_hd__and4_4 abstract view
.subckt sky130_fd_sc_hd__and4_4 A B C D VGND VNB VPB VPWR X
.ends

* Black-box entry subcircuit for sky130_fd_sc_hd__and3_1 abstract view
.subckt sky130_fd_sc_hd__and3_1 A B C VGND VNB VPB VPWR X
.ends

* Black-box entry subcircuit for sky130_fd_sc_hd__and2b_1 abstract view
.subckt sky130_fd_sc_hd__and2b_1 A_N B VGND VNB VPB VPWR X
.ends

* Black-box entry subcircuit for sky130_fd_sc_hd__and3b_1 abstract view
.subckt sky130_fd_sc_hd__and3b_1 A_N B C VGND VNB VPB VPWR X
.ends

* Black-box entry subcircuit for sky130_fd_sc_hd__a31o_1 abstract view
.subckt sky130_fd_sc_hd__a31o_1 A1 A2 A3 B1 VGND VNB VPB VPWR X
.ends

* Black-box entry subcircuit for sky130_fd_sc_hd__a31o_2 abstract view
.subckt sky130_fd_sc_hd__a31o_2 A1 A2 A3 B1 VGND VNB VPB VPWR X
.ends

* Black-box entry subcircuit for sky130_fd_sc_hd__nor3_4 abstract view
.subckt sky130_fd_sc_hd__nor3_4 A B C VGND VNB VPB VPWR Y
.ends

* Black-box entry subcircuit for sky130_fd_sc_hd__buf_6 abstract view
.subckt sky130_fd_sc_hd__buf_6 A VGND VNB VPB VPWR X
.ends

* Black-box entry subcircuit for sky130_fd_sc_hd__xnor2_1 abstract view
.subckt sky130_fd_sc_hd__xnor2_1 A B VGND VNB VPB VPWR Y
.ends

* Black-box entry subcircuit for sky130_fd_sc_hd__xor2_2 abstract view
.subckt sky130_fd_sc_hd__xor2_2 A B VGND VNB VPB VPWR X
.ends

* Black-box entry subcircuit for sky130_fd_sc_hd__a21oi_4 abstract view
.subckt sky130_fd_sc_hd__a21oi_4 A1 A2 B1 VGND VNB VPB VPWR Y
.ends

* Black-box entry subcircuit for sky130_fd_sc_hd__nand4_2 abstract view
.subckt sky130_fd_sc_hd__nand4_2 A B C D VGND VNB VPB VPWR Y
.ends

* Black-box entry subcircuit for sky130_fd_sc_hd__or3b_2 abstract view
.subckt sky130_fd_sc_hd__or3b_2 A B C_N VGND VNB VPB VPWR X
.ends

* Black-box entry subcircuit for sky130_fd_sc_hd__and3_4 abstract view
.subckt sky130_fd_sc_hd__and3_4 A B C VGND VNB VPB VPWR X
.ends

* Black-box entry subcircuit for sky130_fd_sc_hd__xor2_4 abstract view
.subckt sky130_fd_sc_hd__xor2_4 A B VGND VNB VPB VPWR X
.ends

* Black-box entry subcircuit for sky130_fd_sc_hd__nand2_4 abstract view
.subckt sky130_fd_sc_hd__nand2_4 A B VGND VNB VPB VPWR Y
.ends

* Black-box entry subcircuit for sky130_fd_sc_hd__nand2_1 abstract view
.subckt sky130_fd_sc_hd__nand2_1 A B VGND VNB VPB VPWR Y
.ends

* Black-box entry subcircuit for sky130_fd_sc_hd__a32oi_1 abstract view
.subckt sky130_fd_sc_hd__a32oi_1 A1 A2 A3 B1 B2 VGND VNB VPB VPWR Y
.ends

* Black-box entry subcircuit for sky130_fd_sc_hd__nor2_4 abstract view
.subckt sky130_fd_sc_hd__nor2_4 A B VGND VNB VPB VPWR Y
.ends

* Black-box entry subcircuit for sky130_fd_sc_hd__or2_4 abstract view
.subckt sky130_fd_sc_hd__or2_4 A B VGND VNB VPB VPWR X
.ends

* Black-box entry subcircuit for sky130_fd_sc_hd__xnor2_4 abstract view
.subckt sky130_fd_sc_hd__xnor2_4 A B VGND VNB VPB VPWR Y
.ends

* Black-box entry subcircuit for sky130_fd_sc_hd__a21bo_4 abstract view
.subckt sky130_fd_sc_hd__a21bo_4 A1 A2 B1_N VGND VNB VPB VPWR X
.ends

* Black-box entry subcircuit for sky130_fd_sc_hd__xor2_1 abstract view
.subckt sky130_fd_sc_hd__xor2_1 A B VGND VNB VPB VPWR X
.ends

* Black-box entry subcircuit for sky130_fd_sc_hd__nand3_4 abstract view
.subckt sky130_fd_sc_hd__nand3_4 A B C VGND VNB VPB VPWR Y
.ends

* Black-box entry subcircuit for sky130_fd_sc_hd__inv_2 abstract view
.subckt sky130_fd_sc_hd__inv_2 A VGND VNB VPB VPWR Y
.ends

* Black-box entry subcircuit for sky130_fd_sc_hd__o22ai_4 abstract view
.subckt sky130_fd_sc_hd__o22ai_4 A1 A2 B1 B2 VGND VNB VPB VPWR Y
.ends

* Black-box entry subcircuit for sky130_fd_sc_hd__o211ai_2 abstract view
.subckt sky130_fd_sc_hd__o211ai_2 A1 A2 B1 C1 VGND VNB VPB VPWR Y
.ends

* Black-box entry subcircuit for sky130_fd_sc_hd__a22oi_2 abstract view
.subckt sky130_fd_sc_hd__a22oi_2 A1 A2 B1 B2 VGND VNB VPB VPWR Y
.ends

* Black-box entry subcircuit for sky130_fd_sc_hd__o21bai_4 abstract view
.subckt sky130_fd_sc_hd__o21bai_4 A1 A2 B1_N VGND VNB VPB VPWR Y
.ends

* Black-box entry subcircuit for sky130_fd_sc_hd__clkbuf_16 abstract view
.subckt sky130_fd_sc_hd__clkbuf_16 A VGND VNB VPB VPWR X
.ends

* Black-box entry subcircuit for sky130_fd_sc_hd__nand3_1 abstract view
.subckt sky130_fd_sc_hd__nand3_1 A B C VGND VNB VPB VPWR Y
.ends

* Black-box entry subcircuit for sky130_fd_sc_hd__clkbuf_2 abstract view
.subckt sky130_fd_sc_hd__clkbuf_2 A VGND VNB VPB VPWR X
.ends

* Black-box entry subcircuit for sky130_fd_sc_hd__o21ba_1 abstract view
.subckt sky130_fd_sc_hd__o21ba_1 A1 A2 B1_N VGND VNB VPB VPWR X
.ends

* Black-box entry subcircuit for sky130_fd_sc_hd__a211o_4 abstract view
.subckt sky130_fd_sc_hd__a211o_4 A1 A2 B1 C1 VGND VNB VPB VPWR X
.ends

* Black-box entry subcircuit for sky130_fd_sc_hd__buf_8 abstract view
.subckt sky130_fd_sc_hd__buf_8 A VGND VNB VPB VPWR X
.ends

* Black-box entry subcircuit for sky130_fd_sc_hd__a211o_1 abstract view
.subckt sky130_fd_sc_hd__a211o_1 A1 A2 B1 C1 VGND VNB VPB VPWR X
.ends

* Black-box entry subcircuit for sky130_fd_sc_hd__and3b_2 abstract view
.subckt sky130_fd_sc_hd__and3b_2 A_N B C VGND VNB VPB VPWR X
.ends

* Black-box entry subcircuit for sky130_fd_sc_hd__a22o_2 abstract view
.subckt sky130_fd_sc_hd__a22o_2 A1 A2 B1 B2 VGND VNB VPB VPWR X
.ends

* Black-box entry subcircuit for sky130_fd_sc_hd__o21a_2 abstract view
.subckt sky130_fd_sc_hd__o21a_2 A1 A2 B1 VGND VNB VPB VPWR X
.ends

* Black-box entry subcircuit for sky130_fd_sc_hd__a2bb2o_1 abstract view
.subckt sky130_fd_sc_hd__a2bb2o_1 A1_N A2_N B1 B2 VGND VNB VPB VPWR X
.ends

* Black-box entry subcircuit for sky130_fd_sc_hd__nor3b_1 abstract view
.subckt sky130_fd_sc_hd__nor3b_1 A B C_N VGND VNB VPB VPWR Y
.ends

* Black-box entry subcircuit for sky130_fd_sc_hd__o31ai_1 abstract view
.subckt sky130_fd_sc_hd__o31ai_1 A1 A2 A3 B1 VGND VNB VPB VPWR Y
.ends

* Black-box entry subcircuit for sky130_fd_sc_hd__or3b_4 abstract view
.subckt sky130_fd_sc_hd__or3b_4 A B C_N VGND VNB VPB VPWR X
.ends

* Black-box entry subcircuit for sky130_fd_sc_hd__buf_1 abstract view
.subckt sky130_fd_sc_hd__buf_1 A VGND VNB VPB VPWR X
.ends

* Black-box entry subcircuit for sky130_fd_sc_hd__o21ai_4 abstract view
.subckt sky130_fd_sc_hd__o21ai_4 A1 A2 B1 VGND VNB VPB VPWR Y
.ends

* Black-box entry subcircuit for sky130_fd_sc_hd__nor3_1 abstract view
.subckt sky130_fd_sc_hd__nor3_1 A B C VGND VNB VPB VPWR Y
.ends

* Black-box entry subcircuit for sky130_fd_sc_hd__nand3b_4 abstract view
.subckt sky130_fd_sc_hd__nand3b_4 A_N B C VGND VNB VPB VPWR Y
.ends

* Black-box entry subcircuit for sky130_fd_sc_hd__and4b_1 abstract view
.subckt sky130_fd_sc_hd__and4b_1 A_N B C D VGND VNB VPB VPWR X
.ends

* Black-box entry subcircuit for sky130_fd_sc_hd__or2b_1 abstract view
.subckt sky130_fd_sc_hd__or2b_1 A B_N VGND VNB VPB VPWR X
.ends

* Black-box entry subcircuit for sky130_fd_sc_hd__or2_2 abstract view
.subckt sky130_fd_sc_hd__or2_2 A B VGND VNB VPB VPWR X
.ends

* Black-box entry subcircuit for sky130_fd_sc_hd__a22oi_4 abstract view
.subckt sky130_fd_sc_hd__a22oi_4 A1 A2 B1 B2 VGND VNB VPB VPWR Y
.ends

* Black-box entry subcircuit for sky130_fd_sc_hd__dlygate4sd1_1 abstract view
.subckt sky130_fd_sc_hd__dlygate4sd1_1 A VGND VNB VPB VPWR X
.ends

* Black-box entry subcircuit for sky130_fd_sc_hd__o21ai_2 abstract view
.subckt sky130_fd_sc_hd__o21ai_2 A1 A2 B1 VGND VNB VPB VPWR Y
.ends

* Black-box entry subcircuit for sky130_fd_sc_hd__dlymetal6s4s_1 abstract view
.subckt sky130_fd_sc_hd__dlymetal6s4s_1 A VGND VNB VPB VPWR X
.ends

.subckt project2 A[0] A[1] A[2] A[3] A[4] A[5] A[6] A[7] B[0] B[1] B[2] B[3] B[4]
+ B[5] B[6] B[7] VGND VPWR opcode[0] opcode[1] opcode[2] out[0] out[1] out[2] out[3]
+ out[4] out[5] out[6] out[7]
XTAP_TAPCELL_ROW_32_194 VGND VPWR sky130_fd_sc_hd__tapvpwrvgnd_1
XFILLER_0_2_7 VGND VGND VPWR VPWR sky130_fd_sc_hd__fill_1
XFILLER_0_7_81 VPWR VGND VPWR VGND sky130_ef_sc_hd__decap_12
XTAP_TAPCELL_ROW_9_126 VGND VPWR sky130_fd_sc_hd__tapvpwrvgnd_1
Xrebuffer7 _200_ VGND VGND VPWR VPWR net35 sky130_fd_sc_hd__buf_2
X_294_ net2 _201_ VGND VGND VPWR VPWR _222_ sky130_fd_sc_hd__nand2_2
X_363_ _052_ _053_ _054_ VGND VGND VPWR VPWR _055_ sky130_fd_sc_hd__a21o_4
XFILLER_0_2_119 VPWR VGND VPWR VGND sky130_ef_sc_hd__decap_12
X_432_ _118_ _117_ _122_ VGND VGND VPWR VPWR _123_ sky130_fd_sc_hd__a21oi_2
XFILLER_0_1_152 VGND VGND VPWR VPWR sky130_fd_sc_hd__fill_2
X_415_ _104_ _098_ _099_ VGND VGND VPWR VPWR _106_ sky130_fd_sc_hd__nand3_2
XFILLER_0_18_29 VGND VGND VPWR VPWR sky130_fd_sc_hd__decap_4
X_346_ _037_ _038_ VGND VGND VPWR VPWR _039_ sky130_fd_sc_hd__nor2_2
XFILLER_0_46_169 VPWR VGND VPWR VGND sky130_ef_sc_hd__decap_12
XFILLER_0_46_125 VPWR VGND VPWR VGND sky130_ef_sc_hd__decap_12
X_277_ _167_ _201_ _205_ net35 VGND VGND VPWR VPWR _206_ sky130_fd_sc_hd__o2bb2a_1
XTAP_TAPCELL_ROW_34_201 VGND VPWR sky130_fd_sc_hd__tapvpwrvgnd_1
XTAP_TAPCELL_ROW_11_131 VGND VPWR sky130_fd_sc_hd__tapvpwrvgnd_1
XFILLER_0_37_169 VGND VGND VPWR VPWR sky130_fd_sc_hd__decap_6
X_329_ _005_ _008_ _021_ VGND VGND VPWR VPWR _022_ sky130_fd_sc_hd__or3_1
XFILLER_0_45_38 VGND VGND VPWR VPWR sky130_fd_sc_hd__decap_3
XFILLER_0_0_29 VPWR VGND VPWR VGND sky130_ef_sc_hd__decap_12
XFILLER_0_9_27 VPWR VGND VPWR VGND sky130_ef_sc_hd__decap_12
XFILLER_0_10_41 VPWR VGND VPWR VGND sky130_ef_sc_hd__decap_12
XFILLER_0_10_85 VGND VGND VPWR VPWR sky130_fd_sc_hd__decap_6
XFILLER_0_34_139 VGND VGND VPWR VPWR sky130_fd_sc_hd__fill_1
XFILLER_0_19_125 VPWR VGND VPWR VGND sky130_ef_sc_hd__decap_12
XFILLER_0_46_81 VGND VGND VPWR VPWR sky130_fd_sc_hd__decap_3
XFILLER_0_34_3 VGND VGND VPWR VPWR sky130_fd_sc_hd__decap_8
XFILLER_0_21_95 VGND VGND VPWR VPWR sky130_fd_sc_hd__decap_4
XFILLER_0_30_153 VGND VGND VPWR VPWR sky130_fd_sc_hd__fill_1
XFILLER_0_26_29 VPWR VGND VPWR VGND sky130_ef_sc_hd__decap_12
XANTENNA_5 net15 VGND VGND VPWR VPWR sky130_fd_sc_hd__diode_2
XFILLER_0_8_169 VPWR VGND VPWR VGND sky130_ef_sc_hd__decap_12
XFILLER_0_12_131 VGND VGND VPWR VPWR sky130_fd_sc_hd__decap_3
Xoutput20 net20 VGND VGND VPWR VPWR out[0] sky130_fd_sc_hd__buf_2
XFILLER_0_37_39 VPWR VGND VPWR VGND sky130_ef_sc_hd__decap_12
XTAP_TAPCELL_ROW_32_195 VGND VPWR sky130_fd_sc_hd__tapvpwrvgnd_1
XFILLER_0_27_94 VPWR VGND VPWR VGND sky130_ef_sc_hd__decap_12
XFILLER_0_7_93 VPWR VGND VPWR VGND sky130_ef_sc_hd__decap_12
X_362_ net11 net4 VGND VGND VPWR VPWR _054_ sky130_fd_sc_hd__and2_1
X_293_ net12 VGND VGND VPWR VPWR _221_ sky130_fd_sc_hd__clkbuf_4
Xrebuffer8 _131_ VGND VGND VPWR VPWR net40 sky130_fd_sc_hd__dlymetal6s2s_1
X_431_ net7 net15 net28 _119_ _121_ VGND VGND VPWR VPWR _122_ sky130_fd_sc_hd__a311o_1
XTAP_TAPCELL_ROW_14_140 VGND VPWR sky130_fd_sc_hd__tapvpwrvgnd_1
XFILLER_0_13_85 VGND VGND VPWR VPWR sky130_fd_sc_hd__fill_1
XTAP_TAPCELL_ROW_37_210 VGND VPWR sky130_fd_sc_hd__tapvpwrvgnd_1
XFILLER_0_34_29 VPWR VGND VPWR VGND sky130_ef_sc_hd__decap_12
XFILLER_0_34_18 VGND VGND VPWR VPWR sky130_fd_sc_hd__decap_8
X_414_ _098_ _099_ _104_ VGND VGND VPWR VPWR _105_ sky130_fd_sc_hd__a21o_1
X_276_ _166_ _204_ _188_ VGND VGND VPWR VPWR _205_ sky130_fd_sc_hd__a21oi_1
X_345_ _024_ _230_ _036_ VGND VGND VPWR VPWR _038_ sky130_fd_sc_hd__nor3_2
XTAP_TAPCELL_ROW_11_132 VGND VPWR sky130_fd_sc_hd__tapvpwrvgnd_1
XFILLER_0_46_159 VGND VGND VPWR VPWR sky130_fd_sc_hd__decap_8
XFILLER_0_46_137 VGND VGND VPWR VPWR sky130_fd_sc_hd__decap_3
XFILLER_0_40_83 VGND VGND VPWR VPWR sky130_fd_sc_hd__fill_1
XFILLER_0_37_104 VGND VGND VPWR VPWR sky130_fd_sc_hd__decap_8
XPHY_EDGE_ROW_21_Right_21 VGND VGND VPWR VPWR sky130_fd_sc_hd__decap_3
XPHY_EDGE_ROW_12_Right_12 VGND VGND VPWR VPWR sky130_fd_sc_hd__decap_3
X_328_ _019_ _020_ VGND VGND VPWR VPWR _021_ sky130_fd_sc_hd__and2_4
XPHY_EDGE_ROW_30_Right_30 VGND VGND VPWR VPWR sky130_fd_sc_hd__decap_3
X_259_ net17 net18 net19 VGND VGND VPWR VPWR _189_ sky130_fd_sc_hd__or3b_1
XFILLER_0_9_39 VPWR VGND VPWR VGND sky130_ef_sc_hd__decap_12
XFILLER_0_35_61 VGND VGND VPWR VPWR sky130_fd_sc_hd__fill_1
XFILLER_0_19_137 VPWR VGND VPWR VGND sky130_ef_sc_hd__decap_12
XFILLER_0_10_53 VGND VGND VPWR VPWR sky130_fd_sc_hd__decap_8
XFILLER_0_10_97 VGND VGND VPWR VPWR sky130_fd_sc_hd__decap_3
XFILLER_0_18_181 VGND VGND VPWR VPWR sky130_fd_sc_hd__decap_8
XPHY_EDGE_ROW_28_Left_75 VGND VGND VPWR VPWR sky130_fd_sc_hd__decap_3
XPHY_EDGE_ROW_12_Left_59 VGND VGND VPWR VPWR sky130_fd_sc_hd__decap_3
XFILLER_0_30_187 VGND VGND VPWR VPWR sky130_fd_sc_hd__decap_3
XFILLER_0_27_3 VGND VGND VPWR VPWR sky130_fd_sc_hd__decap_4
XFILLER_0_42_29 VPWR VGND VPWR VGND sky130_ef_sc_hd__decap_12
XFILLER_0_21_121 VGND VGND VPWR VPWR sky130_fd_sc_hd__fill_2
XFILLER_0_16_85 VPWR VGND VPWR VGND sky130_ef_sc_hd__decap_12
XFILLER_0_16_41 VPWR VGND VPWR VGND sky130_ef_sc_hd__decap_12
XFILLER_0_6_29 VGND VGND VPWR VPWR sky130_fd_sc_hd__fill_1
XFILLER_0_13_9 VPWR VGND VPWR VGND sky130_ef_sc_hd__decap_12
XFILLER_0_32_73 VGND VGND VPWR VPWR sky130_fd_sc_hd__fill_2
XPHY_EDGE_ROW_6_Right_6 VGND VGND VPWR VPWR sky130_fd_sc_hd__decap_3
Xoutput21 net21 VGND VGND VPWR VPWR out[1] sky130_fd_sc_hd__buf_2
XFILLER_0_7_181 VGND VGND VPWR VPWR sky130_fd_sc_hd__decap_3
XFILLER_0_43_72 VPWR VGND VPWR VGND sky130_ef_sc_hd__decap_12
X_361_ net10 net5 net6 net9 VGND VGND VPWR VPWR _053_ sky130_fd_sc_hd__a22o_4
X_430_ net7 net15 _169_ _120_ VGND VGND VPWR VPWR _121_ sky130_fd_sc_hd__o22a_1
XPHY_EDGE_ROW_15_Left_62 VGND VGND VPWR VPWR sky130_fd_sc_hd__decap_3
X_292_ _208_ _209_ _220_ VGND VGND VPWR VPWR net22 sky130_fd_sc_hd__o21ai_1
XTAP_TAPCELL_ROW_14_141 VGND VPWR sky130_fd_sc_hd__tapvpwrvgnd_1
XFILLER_0_1_121 VGND VGND VPWR VPWR sky130_fd_sc_hd__fill_2
XFILLER_0_1_110 VGND VGND VPWR VPWR sky130_fd_sc_hd__fill_2
XFILLER_0_38_72 VPWR VGND VPWR VGND sky130_ef_sc_hd__decap_12
XPHY_EDGE_ROW_0_Left_47 VGND VGND VPWR VPWR sky130_fd_sc_hd__decap_3
X_413_ _100_ _103_ VGND VGND VPWR VPWR _104_ sky130_fd_sc_hd__xnor2_2
X_344_ _024_ _230_ _036_ VGND VGND VPWR VPWR _037_ sky130_fd_sc_hd__o21a_4
X_275_ net3 VGND VGND VPWR VPWR _204_ sky130_fd_sc_hd__buf_12
XFILLER_0_46_149 VGND VGND VPWR VPWR sky130_fd_sc_hd__decap_3
XPHY_EDGE_ROW_42_Left_89 VGND VGND VPWR VPWR sky130_fd_sc_hd__decap_3
XFILLER_0_24_85 VPWR VGND VPWR VGND sky130_ef_sc_hd__decap_12
XFILLER_0_24_74 VGND VGND VPWR VPWR sky130_fd_sc_hd__decap_8
XFILLER_0_4_40 VPWR VGND VPWR VGND sky130_ef_sc_hd__decap_12
XTAP_TAPCELL_ROW_40_217 VGND VPWR sky130_fd_sc_hd__tapvpwrvgnd_1
XFILLER_0_43_108 VGND VGND VPWR VPWR sky130_fd_sc_hd__decap_4
XFILLER_0_43_9 VGND VGND VPWR VPWR sky130_fd_sc_hd__decap_8
X_327_ _015_ _018_ VGND VGND VPWR VPWR _020_ sky130_fd_sc_hd__or2_1
XFILLER_0_19_149 VPWR VGND VPWR VGND sky130_ef_sc_hd__decap_12
XFILLER_0_19_105 VGND VGND VPWR VPWR sky130_fd_sc_hd__decap_6
X_258_ _181_ _178_ VGND VGND VPWR VPWR _188_ sky130_fd_sc_hd__and2_2
XFILLER_0_42_141 VPWR VGND VPWR VGND sky130_ef_sc_hd__decap_12
XFILLER_0_24_163 VPWR VGND VPWR VGND sky130_ef_sc_hd__decap_12
XFILLER_0_24_141 VPWR VGND VPWR VGND sky130_ef_sc_hd__decap_12
XFILLER_0_21_53 VGND VGND VPWR VPWR sky130_fd_sc_hd__decap_3
XPHY_EDGE_ROW_3_Left_50 VGND VGND VPWR VPWR sky130_fd_sc_hd__decap_3
XPHY_EDGE_ROW_45_Left_92 VGND VGND VPWR VPWR sky130_fd_sc_hd__decap_3
XFILLER_0_30_111 VGND VGND VPWR VPWR sky130_fd_sc_hd__decap_3
XFILLER_0_32_85 VPWR VGND VPWR VGND sky130_ef_sc_hd__decap_12
XFILLER_0_32_41 VPWR VGND VPWR VGND sky130_ef_sc_hd__decap_12
XFILLER_0_16_97 VPWR VGND VPWR VGND sky130_ef_sc_hd__decap_12
XFILLER_0_16_53 VPWR VGND VPWR VGND sky130_ef_sc_hd__decap_12
Xoutput22 net22 VGND VGND VPWR VPWR out[2] sky130_fd_sc_hd__buf_2
XFILLER_0_9_3 VPWR VGND VPWR VGND sky130_ef_sc_hd__decap_12
XFILLER_0_43_84 VPWR VGND VPWR VGND sky130_ef_sc_hd__decap_12
XTAP_TAPCELL_ROW_17_150 VGND VPWR sky130_fd_sc_hd__tapvpwrvgnd_1
XFILLER_0_4_141 VPWR VGND VPWR VGND sky130_ef_sc_hd__decap_12
XFILLER_0_4_163 VPWR VGND VPWR VGND sky130_ef_sc_hd__decap_12
X_291_ _214_ _215_ _218_ _219_ VGND VGND VPWR VPWR _220_ sky130_fd_sc_hd__o211a_1
X_360_ net36 net10 net5 _046_ VGND VGND VPWR VPWR _052_ sky130_fd_sc_hd__nand4_4
XFILLER_0_13_65 VGND VGND VPWR VPWR sky130_fd_sc_hd__fill_1
XFILLER_0_13_54 VGND VGND VPWR VPWR sky130_fd_sc_hd__fill_2
XFILLER_0_13_21 VGND VGND VPWR VPWR sky130_fd_sc_hd__decap_6
XTAP_TAPCELL_ROW_43_226 VGND VPWR sky130_fd_sc_hd__tapvpwrvgnd_1
X_274_ _200_ _202_ net1 _201_ VGND VGND VPWR VPWR _203_ sky130_fd_sc_hd__and4b_2
X_412_ _101_ _102_ VGND VGND VPWR VPWR _103_ sky130_fd_sc_hd__nor2_2
X_343_ _027_ _035_ VGND VGND VPWR VPWR _036_ sky130_fd_sc_hd__xnor2_2
XFILLER_0_40_85 VPWR VGND VPWR VGND sky130_ef_sc_hd__decap_12
XFILLER_0_40_41 VPWR VGND VPWR VGND sky130_ef_sc_hd__decap_12
XFILLER_0_24_97 VPWR VGND VPWR VGND sky130_ef_sc_hd__decap_12
XFILLER_0_24_53 VPWR VGND VPWR VGND sky130_ef_sc_hd__decap_12
XFILLER_0_4_52 VPWR VGND VPWR VGND sky130_ef_sc_hd__decap_12
XFILLER_0_4_85 VPWR VGND VPWR VGND sky130_ef_sc_hd__decap_12
XFILLER_0_45_19 VGND VGND VPWR VPWR sky130_fd_sc_hd__fill_1
XTAP_TAPCELL_ROW_40_218 VGND VPWR sky130_fd_sc_hd__tapvpwrvgnd_1
X_257_ _182_ _183_ _184_ VGND VGND VPWR VPWR _187_ sky130_fd_sc_hd__o21ai_1
XFILLER_0_36_172 VGND VGND VPWR VPWR sky130_fd_sc_hd__fill_2
XFILLER_0_35_74 VPWR VGND VPWR VGND sky130_ef_sc_hd__decap_12
XFILLER_0_35_30 VGND VGND VPWR VPWR sky130_fd_sc_hd__fill_1
XFILLER_0_28_139 VGND VGND VPWR VPWR sky130_fd_sc_hd__fill_1
X_326_ net39 _018_ VGND VGND VPWR VPWR _019_ sky130_fd_sc_hd__nand2_2
XFILLER_0_42_153 VGND VGND VPWR VPWR sky130_fd_sc_hd__decap_6
XFILLER_0_34_109 VPWR VGND VPWR VGND sky130_ef_sc_hd__decap_12
XFILLER_0_27_161 VGND VGND VPWR VPWR sky130_fd_sc_hd__decap_6
X_309_ _221_ _002_ VGND VGND VPWR VPWR _003_ sky130_fd_sc_hd__nor2_1
XFILLER_0_21_21 VPWR VGND VPWR VGND sky130_ef_sc_hd__decap_12
XFILLER_0_16_109 VGND VGND VPWR VPWR sky130_fd_sc_hd__decap_4
XFILLER_0_24_175 VPWR VGND VPWR VGND sky130_ef_sc_hd__decap_12
XFILLER_0_24_153 VGND VGND VPWR VPWR sky130_fd_sc_hd__decap_4
XFILLER_0_21_65 VGND VGND VPWR VPWR sky130_fd_sc_hd__decap_3
XFILLER_0_1_53 VGND VGND VPWR VPWR sky130_fd_sc_hd__decap_3
XFILLER_0_30_167 VPWR VGND VPWR VGND sky130_ef_sc_hd__decap_12
XFILLER_0_30_145 VGND VGND VPWR VPWR sky130_fd_sc_hd__decap_8
XFILLER_0_21_189 VGND VGND VPWR VPWR sky130_fd_sc_hd__fill_1
XFILLER_0_32_97 VPWR VGND VPWR VGND sky130_ef_sc_hd__decap_12
XFILLER_0_32_53 VPWR VGND VPWR VGND sky130_ef_sc_hd__decap_12
XFILLER_0_16_65 VPWR VGND VPWR VGND sky130_ef_sc_hd__decap_12
XFILLER_0_8_117 VGND VGND VPWR VPWR sky130_fd_sc_hd__fill_1
XFILLER_0_12_189 VGND VGND VPWR VPWR sky130_fd_sc_hd__fill_1
XFILLER_0_32_3 VPWR VGND VPWR VGND sky130_ef_sc_hd__decap_12
Xoutput23 net23 VGND VGND VPWR VPWR out[3] sky130_fd_sc_hd__buf_2
XFILLER_0_7_150 VPWR VGND VPWR VGND sky130_ef_sc_hd__decap_12
XFILLER_0_5_109 VGND VGND VPWR VPWR sky130_fd_sc_hd__decap_3
XFILLER_0_43_96 VPWR VGND VPWR VGND sky130_ef_sc_hd__decap_12
XFILLER_0_43_30 VGND VGND VPWR VPWR sky130_fd_sc_hd__fill_1
XFILLER_0_4_120 VPWR VGND VPWR VGND sky130_ef_sc_hd__decap_12
XFILLER_0_4_153 VGND VGND VPWR VPWR sky130_fd_sc_hd__decap_4
XFILLER_0_4_175 VPWR VGND VPWR VGND sky130_ef_sc_hd__decap_12
XTAP_TAPCELL_ROW_46_235 VGND VPWR sky130_fd_sc_hd__tapvpwrvgnd_1
X_290_ _193_ _216_ _204_ _173_ VGND VGND VPWR VPWR _219_ sky130_fd_sc_hd__o2bb2a_1
XFILLER_0_38_41 VGND VGND VPWR VPWR sky130_fd_sc_hd__decap_8
XFILLER_0_1_167 VGND VGND VPWR VPWR sky130_fd_sc_hd__fill_1
XTAP_TAPCELL_ROW_43_227 VGND VPWR sky130_fd_sc_hd__tapvpwrvgnd_1
X_342_ _033_ _034_ VGND VGND VPWR VPWR _035_ sky130_fd_sc_hd__nor2_2
XTAP_TAPCELL_ROW_20_157 VGND VPWR sky130_fd_sc_hd__tapvpwrvgnd_1
X_411_ _204_ net4 net12 net13 VGND VGND VPWR VPWR _102_ sky130_fd_sc_hd__and4_1
X_273_ net2 net10 net3 _165_ VGND VGND VPWR VPWR _202_ sky130_fd_sc_hd__a22o_1
XFILLER_0_39_181 VGND VGND VPWR VPWR sky130_fd_sc_hd__decap_8
XFILLER_0_40_53 VPWR VGND VPWR VGND sky130_ef_sc_hd__decap_12
XFILLER_0_24_65 VGND VGND VPWR VPWR sky130_fd_sc_hd__fill_2
XFILLER_0_24_32 VGND VGND VPWR VPWR sky130_fd_sc_hd__decap_6
XTAP_TAPCELL_ROW_40_219 VGND VPWR sky130_fd_sc_hd__tapvpwrvgnd_1
XTAP_TAPCELL_ROW_2_103 VGND VPWR sky130_fd_sc_hd__tapvpwrvgnd_1
XFILLER_0_4_64 VPWR VGND VPWR VGND sky130_ef_sc_hd__decap_12
XFILLER_0_4_97 VPWR VGND VPWR VGND sky130_ef_sc_hd__decap_12
X_325_ _016_ net29 VGND VGND VPWR VPWR _018_ sky130_fd_sc_hd__xnor2_2
XFILLER_0_36_184 VGND VGND VPWR VPWR sky130_fd_sc_hd__decap_6
X_256_ net19 net18 VGND VGND VPWR VPWR _186_ sky130_fd_sc_hd__nor2_2
XFILLER_0_19_43 VGND VGND VPWR VPWR sky130_fd_sc_hd__fill_1
XFILLER_0_35_86 VPWR VGND VPWR VGND sky130_ef_sc_hd__decap_12
XFILLER_0_33_121 VGND VGND VPWR VPWR sky130_fd_sc_hd__decap_3
XFILLER_0_46_85 VPWR VGND VPWR VGND sky130_ef_sc_hd__decap_12
XFILLER_0_46_41 VPWR VGND VPWR VGND sky130_ef_sc_hd__decap_12
XFILLER_0_24_187 VGND VGND VPWR VPWR sky130_fd_sc_hd__decap_3
XFILLER_0_24_121 VPWR VGND VPWR VGND sky130_ef_sc_hd__decap_12
XFILLER_0_21_33 VGND VGND VPWR VPWR sky130_fd_sc_hd__decap_4
X_308_ net36 _178_ _201_ _177_ VGND VGND VPWR VPWR _002_ sky130_fd_sc_hd__o31a_1
X_239_ _166_ _167_ net19 net17 net18 VGND VGND VPWR VPWR _170_ sky130_fd_sc_hd__a221oi_2
XFILLER_0_1_98 VPWR VGND VPWR VGND sky130_ef_sc_hd__decap_12
XFILLER_0_1_21 VPWR VGND VPWR VGND sky130_ef_sc_hd__decap_12
XFILLER_0_30_179 VGND VGND VPWR VPWR sky130_fd_sc_hd__decap_8
XFILLER_0_30_157 VGND VGND VPWR VPWR sky130_fd_sc_hd__decap_4
XFILLER_0_15_187 VGND VGND VPWR VPWR sky130_fd_sc_hd__decap_3
XFILLER_0_32_65 VGND VGND VPWR VPWR sky130_fd_sc_hd__decap_8
XFILLER_0_21_113 VGND VGND VPWR VPWR sky130_fd_sc_hd__decap_8
XFILLER_0_16_77 VGND VGND VPWR VPWR sky130_fd_sc_hd__decap_6
XFILLER_0_25_3 VPWR VGND VPWR VGND sky130_ef_sc_hd__decap_12
Xoutput24 net24 VGND VGND VPWR VPWR out[4] sky130_fd_sc_hd__buf_2
XFILLER_0_7_162 VGND VGND VPWR VPWR sky130_fd_sc_hd__decap_6
XPHY_EDGE_ROW_28_Right_28 VGND VGND VPWR VPWR sky130_fd_sc_hd__decap_3
XPHY_EDGE_ROW_19_Right_19 VGND VGND VPWR VPWR sky130_fd_sc_hd__decap_3
XPHY_EDGE_ROW_46_Right_46 VGND VGND VPWR VPWR sky130_fd_sc_hd__decap_3
XPHY_EDGE_ROW_37_Right_37 VGND VGND VPWR VPWR sky130_fd_sc_hd__decap_3
XFILLER_0_27_21 VPWR VGND VPWR VGND sky130_ef_sc_hd__decap_12
XFILLER_0_4_132 VGND VGND VPWR VPWR sky130_fd_sc_hd__decap_8
XFILLER_0_4_187 VGND VGND VPWR VPWR sky130_fd_sc_hd__decap_3
XFILLER_0_7_31 VPWR VGND VPWR VGND sky130_ef_sc_hd__decap_12
XFILLER_0_11_9 VGND VGND VPWR VPWR sky130_fd_sc_hd__decap_8
XTAP_TAPCELL_ROW_46_236 VGND VPWR sky130_fd_sc_hd__tapvpwrvgnd_1
XTAP_TAPCELL_ROW_23_166 VGND VPWR sky130_fd_sc_hd__tapvpwrvgnd_1
XPHY_EDGE_ROW_19_Left_66 VGND VGND VPWR VPWR sky130_fd_sc_hd__decap_3
XFILLER_0_13_34 VPWR VGND VPWR VGND sky130_ef_sc_hd__decap_12
XFILLER_0_1_113 VGND VGND VPWR VPWR sky130_fd_sc_hd__decap_8
XTAP_TAPCELL_ROW_43_228 VGND VPWR sky130_fd_sc_hd__tapvpwrvgnd_1
X_272_ net11 VGND VGND VPWR VPWR _201_ sky130_fd_sc_hd__clkbuf_8
X_410_ _224_ net12 net13 _204_ VGND VGND VPWR VPWR _101_ sky130_fd_sc_hd__a22oi_1
X_341_ _030_ _031_ _032_ VGND VGND VPWR VPWR _034_ sky130_fd_sc_hd__a21oi_2
XTAP_TAPCELL_ROW_20_158 VGND VPWR sky130_fd_sc_hd__tapvpwrvgnd_1
XTAP_TAPCELL_ROW_5_112 VGND VPWR sky130_fd_sc_hd__tapvpwrvgnd_1
XFILLER_0_40_65 VGND VGND VPWR VPWR sky130_fd_sc_hd__fill_1
XTAP_TAPCELL_ROW_2_104 VGND VPWR sky130_fd_sc_hd__tapvpwrvgnd_1
XFILLER_0_4_76 VGND VGND VPWR VPWR sky130_fd_sc_hd__decap_8
XFILLER_0_36_141 VPWR VGND VPWR VGND sky130_ef_sc_hd__decap_12
X_255_ _182_ _183_ _184_ VGND VGND VPWR VPWR _185_ sky130_fd_sc_hd__or3_1
X_324_ _002_ _221_ _177_ VGND VGND VPWR VPWR _017_ sky130_fd_sc_hd__o21a_1
XFILLER_0_42_188 VGND VGND VPWR VPWR sky130_fd_sc_hd__fill_2
XFILLER_0_35_98 VPWR VGND VPWR VGND sky130_ef_sc_hd__decap_12
XTAP_TAPCELL_ROW_0_94 VGND VPWR sky130_fd_sc_hd__tapvpwrvgnd_1
XFILLER_0_33_111 VGND VGND VPWR VPWR sky130_fd_sc_hd__fill_1