* NGSPICE file created from ZeroToFiveCounter.ext - technology: sky130A

* Black-box entry subcircuit for sky130_fd_sc_hd__diode_2 abstract view
.subckt sky130_fd_sc_hd__diode_2 DIODE VGND VNB VPB VPWR
.ends

* Black-box entry subcircuit for sky130_fd_sc_hd__fill_2 abstract view
.subckt sky130_fd_sc_hd__fill_2 VGND VNB VPB VPWR
.ends

* Black-box entry subcircuit for sky130_ef_sc_hd__decap_12 abstract view
.subckt sky130_ef_sc_hd__decap_12 VPWR VGND VPB VNB
.ends

* Black-box entry subcircuit for sky130_fd_sc_hd__a21boi_1 abstract view
.subckt sky130_fd_sc_hd__a21boi_1 A1 A2 B1_N VGND VNB VPB VPWR Y
.ends

* Black-box entry subcircuit for sky130_fd_sc_hd__tapvpwrvgnd_1 abstract view
.subckt sky130_fd_sc_hd__tapvpwrvgnd_1 VGND VPWR
.ends

* Black-box entry subcircuit for sky130_fd_sc_hd__dfrtp_4 abstract view
.subckt sky130_fd_sc_hd__dfrtp_4 CLK D RESET_B VGND VNB VPB VPWR Q
.ends

* Black-box entry subcircuit for sky130_fd_sc_hd__decap_4 abstract view
.subckt sky130_fd_sc_hd__decap_4 VGND VNB VPB VPWR
.ends

* Black-box entry subcircuit for sky130_fd_sc_hd__and3_1 abstract view
.subckt sky130_fd_sc_hd__and3_1 A B C VGND VNB VPB VPWR X
.ends

* Black-box entry subcircuit for sky130_fd_sc_hd__and3b_1 abstract view
.subckt sky130_fd_sc_hd__and3b_1 A_N B C VGND VNB VPB VPWR X
.ends

* Black-box entry subcircuit for sky130_fd_sc_hd__fill_1 abstract view
.subckt sky130_fd_sc_hd__fill_1 VGND VNB VPB VPWR
.ends

* Black-box entry subcircuit for sky130_fd_sc_hd__inv_2 abstract view
.subckt sky130_fd_sc_hd__inv_2 A VGND VNB VPB VPWR Y
.ends

* Black-box entry subcircuit for sky130_fd_sc_hd__decap_3 abstract view
.subckt sky130_fd_sc_hd__decap_3 VGND VNB VPB VPWR
.ends

* Black-box entry subcircuit for sky130_fd_sc_hd__decap_8 abstract view
.subckt sky130_fd_sc_hd__decap_8 VGND VNB VPB VPWR
.ends

* Black-box entry subcircuit for sky130_fd_sc_hd__buf_2 abstract view
.subckt sky130_fd_sc_hd__buf_2 A VGND VNB VPB VPWR X
.ends

* Black-box entry subcircuit for sky130_fd_sc_hd__decap_6 abstract view
.subckt sky130_fd_sc_hd__decap_6 VGND VNB VPB VPWR
.ends

* Black-box entry subcircuit for sky130_fd_sc_hd__buf_1 abstract view
.subckt sky130_fd_sc_hd__buf_1 A VGND VNB VPB VPWR X
.ends

* Black-box entry subcircuit for sky130_fd_sc_hd__dfrtp_1 abstract view
.subckt sky130_fd_sc_hd__dfrtp_1 CLK D RESET_B VGND VNB VPB VPWR Q
.ends

* Black-box entry subcircuit for sky130_fd_sc_hd__a21oi_1 abstract view
.subckt sky130_fd_sc_hd__a21oi_1 A1 A2 B1 VGND VNB VPB VPWR Y
.ends

* Black-box entry subcircuit for sky130_fd_sc_hd__or3_1 abstract view
.subckt sky130_fd_sc_hd__or3_1 A B C VGND VNB VPB VPWR X
.ends

* Black-box entry subcircuit for sky130_fd_sc_hd__a221oi_1 abstract view
.subckt sky130_fd_sc_hd__a221oi_1 A1 A2 B1 B2 C1 VGND VNB VPB VPWR Y
.ends

* Black-box entry subcircuit for sky130_fd_sc_hd__dfrtp_2 abstract view
.subckt sky130_fd_sc_hd__dfrtp_2 CLK D RESET_B VGND VNB VPB VPWR Q
.ends

* Black-box entry subcircuit for sky130_fd_sc_hd__clkbuf_4 abstract view
.subckt sky130_fd_sc_hd__clkbuf_4 A VGND VNB VPB VPWR X
.ends

* Black-box entry subcircuit for sky130_fd_sc_hd__and2_1 abstract view
.subckt sky130_fd_sc_hd__and2_1 A B VGND VNB VPB VPWR X
.ends

* Black-box entry subcircuit for sky130_fd_sc_hd__and4_1 abstract view
.subckt sky130_fd_sc_hd__and4_1 A B C D VGND VNB VPB VPWR X
.ends

* Black-box entry subcircuit for sky130_fd_sc_hd__a21bo_2 abstract view
.subckt sky130_fd_sc_hd__a21bo_2 A1 A2 B1_N VGND VNB VPB VPWR X
.ends

* Black-box entry subcircuit for sky130_fd_sc_hd__a41o_1 abstract view
.subckt sky130_fd_sc_hd__a41o_1 A1 A2 A3 A4 B1 VGND VNB VPB VPWR X
.ends

* Black-box entry subcircuit for sky130_fd_sc_hd__nand2_1 abstract view
.subckt sky130_fd_sc_hd__nand2_1 A B VGND VNB VPB VPWR Y
.ends

* Black-box entry subcircuit for sky130_fd_sc_hd__clkbuf_1 abstract view
.subckt sky130_fd_sc_hd__clkbuf_1 A VGND VNB VPB VPWR X
.ends

* Black-box entry subcircuit for sky130_fd_sc_hd__o211a_1 abstract view
.subckt sky130_fd_sc_hd__o211a_1 A1 A2 B1 C1 VGND VNB VPB VPWR X
.ends

* Black-box entry subcircuit for sky130_fd_sc_hd__o211ai_2 abstract view
.subckt sky130_fd_sc_hd__o211ai_2 A1 A2 B1 C1 VGND VNB VPB VPWR Y
.ends

* Black-box entry subcircuit for sky130_fd_sc_hd__clkinv_1 abstract view
.subckt sky130_fd_sc_hd__clkinv_1 A VGND VNB VPB VPWR Y
.ends

* Black-box entry subcircuit for sky130_fd_sc_hd__a31o_1 abstract view
.subckt sky130_fd_sc_hd__a31o_1 A1 A2 A3 B1 VGND VNB VPB VPWR X
.ends

* Black-box entry subcircuit for sky130_fd_sc_hd__o2bb2a_1 abstract view
.subckt sky130_fd_sc_hd__o2bb2a_1 A1_N A2_N B1 B2 VGND VNB VPB VPWR X
.ends

* Black-box entry subcircuit for sky130_fd_sc_hd__buf_4 abstract view
.subckt sky130_fd_sc_hd__buf_4 A VGND VNB VPB VPWR X
.ends

* Black-box entry subcircuit for sky130_fd_sc_hd__o31a_1 abstract view
.subckt sky130_fd_sc_hd__o31a_1 A1 A2 A3 B1 VGND VNB VPB VPWR X
.ends

* Black-box entry subcircuit for sky130_fd_sc_hd__nor2_1 abstract view
.subckt sky130_fd_sc_hd__nor2_1 A B VGND VNB VPB VPWR Y
.ends

* Black-box entry subcircuit for sky130_fd_sc_hd__clkbuf_16 abstract view
.subckt sky130_fd_sc_hd__clkbuf_16 A VGND VNB VPB VPWR X
.ends

* Black-box entry subcircuit for sky130_fd_sc_hd__and4b_1 abstract view
.subckt sky130_fd_sc_hd__and4b_1 A_N B C D VGND VNB VPB VPWR X
.ends

* Black-box entry subcircuit for sky130_fd_sc_hd__nand3_2 abstract view
.subckt sky130_fd_sc_hd__nand3_2 A B C VGND VNB VPB VPWR Y
.ends

* Black-box entry subcircuit for sky130_fd_sc_hd__xor2_1 abstract view
.subckt sky130_fd_sc_hd__xor2_1 A B VGND VNB VPB VPWR X
.ends

* Black-box entry subcircuit for sky130_fd_sc_hd__a21o_1 abstract view
.subckt sky130_fd_sc_hd__a21o_1 A1 A2 B1 VGND VNB VPB VPWR X
.ends

* Black-box entry subcircuit for sky130_fd_sc_hd__or4_1 abstract view
.subckt sky130_fd_sc_hd__or4_1 A B C D VGND VNB VPB VPWR X
.ends

* Black-box entry subcircuit for sky130_fd_sc_hd__xnor2_1 abstract view
.subckt sky130_fd_sc_hd__xnor2_1 A B VGND VNB VPB VPWR Y
.ends

* Black-box entry subcircuit for sky130_fd_sc_hd__or2_1 abstract view
.subckt sky130_fd_sc_hd__or2_1 A B VGND VNB VPB VPWR X
.ends

* Black-box entry subcircuit for sky130_fd_sc_hd__a211oi_1 abstract view
.subckt sky130_fd_sc_hd__a211oi_1 A1 A2 B1 C1 VGND VNB VPB VPWR Y
.ends

* Black-box entry subcircuit for sky130_fd_sc_hd__a2111o_1 abstract view
.subckt sky130_fd_sc_hd__a2111o_1 A1 A2 B1 C1 D1 VGND VNB VPB VPWR X
.ends

* Black-box entry subcircuit for sky130_fd_sc_hd__nor2_2 abstract view
.subckt sky130_fd_sc_hd__nor2_2 A B VGND VNB VPB VPWR Y
.ends

* Black-box entry subcircuit for sky130_fd_sc_hd__dlygate4sd3_1 abstract view
.subckt sky130_fd_sc_hd__dlygate4sd3_1 A VGND VNB VPB VPWR X
.ends

* Black-box entry subcircuit for sky130_fd_sc_hd__and2_2 abstract view
.subckt sky130_fd_sc_hd__and2_2 A B VGND VNB VPB VPWR X
.ends

* Black-box entry subcircuit for sky130_fd_sc_hd__nand3_1 abstract view
.subckt sky130_fd_sc_hd__nand3_1 A B C VGND VNB VPB VPWR Y
.ends

* Black-box entry subcircuit for sky130_fd_sc_hd__and4_2 abstract view
.subckt sky130_fd_sc_hd__and4_2 A B C D VGND VNB VPB VPWR X
.ends

* Black-box entry subcircuit for sky130_fd_sc_hd__a211oi_2 abstract view
.subckt sky130_fd_sc_hd__a211oi_2 A1 A2 B1 C1 VGND VNB VPB VPWR Y
.ends

* Black-box entry subcircuit for sky130_fd_sc_hd__nor3_1 abstract view
.subckt sky130_fd_sc_hd__nor3_1 A B C VGND VNB VPB VPWR Y
.ends

* Black-box entry subcircuit for sky130_fd_sc_hd__and3_2 abstract view
.subckt sky130_fd_sc_hd__and3_2 A B C VGND VNB VPB VPWR X
.ends

* Black-box entry subcircuit for sky130_fd_sc_hd__conb_1 abstract view
.subckt sky130_fd_sc_hd__conb_1 VGND VNB VPB VPWR HI LO
.ends

* Black-box entry subcircuit for sky130_fd_sc_hd__or2_2 abstract view
.subckt sky130_fd_sc_hd__or2_2 A B VGND VNB VPB VPWR X
.ends

* Black-box entry subcircuit for sky130_fd_sc_hd__clkbuf_8 abstract view
.subckt sky130_fd_sc_hd__clkbuf_8 A VGND VNB VPB VPWR X
.ends

.subckt ZeroToFiveCounter VGND VPWR an[0] an[1] an[2] an[3] an[4] an[5] an[6] an[7]
+ clk rst seg[0] seg[1] seg[2] seg[3] seg[4] seg[5] seg[6]
XANTENNA__203__B _075_ VGND VGND VPWR VPWR sky130_fd_sc_hd__diode_2
XFILLER_0_4_182 VGND VGND VPWR VPWR sky130_fd_sc_hd__fill_2
XFILLER_0_7_81 VPWR VGND VPWR VGND sky130_ef_sc_hd__decap_12
X_294_ decoder.digit\[1\] _155_ _067_ VGND VGND VPWR VPWR net8 sky130_fd_sc_hd__a21boi_1
XTAP_TAPCELL_ROW_15_106 VGND VPWR sky130_fd_sc_hd__tapvpwrvgnd_1
XANTENNA__304__A _159_ VGND VGND VPWR VPWR sky130_fd_sc_hd__diode_2
XFILLER_0_1_152 VPWR VGND VPWR VGND sky130_ef_sc_hd__decap_12
XANTENNA__256__B1 one_second_counter\[19\] VGND VGND VPWR VPWR sky130_fd_sc_hd__diode_2
XTAP_TAPCELL_ROW_20_120 VGND VPWR sky130_fd_sc_hd__tapvpwrvgnd_1
X_346_ clknet_2_0__leaf_clk _007_ _044_ VGND VGND VPWR VPWR one_second_counter\[16\]
+ sky130_fd_sc_hd__dfrtp_4
XFILLER_0_24_61 VGND VGND VPWR VPWR sky130_fd_sc_hd__decap_4
X_277_ one_second_counter\[24\] _127_ _148_ VGND VGND VPWR VPWR _150_ sky130_fd_sc_hd__and3_1
X_200_ _075_ _085_ _093_ VGND VGND VPWR VPWR _094_ sky130_fd_sc_hd__and3b_1
XANTENNA__209__A _027_ VGND VGND VPWR VPWR sky130_fd_sc_hd__diode_2
XFILLER_0_4_60 VGND VGND VPWR VPWR sky130_fd_sc_hd__fill_1
XFILLER_0_4_71 VGND VGND VPWR VPWR sky130_fd_sc_hd__decap_4
XANTENNA__171__A2 decoder.digit\[0\] VGND VGND VPWR VPWR sky130_fd_sc_hd__diode_2
XFILLER_0_10_85 VPWR VGND VPWR VGND sky130_ef_sc_hd__decap_12
XFILLER_0_0_29 VPWR VGND VPWR VGND sky130_ef_sc_hd__decap_12
X_329_ net1 VGND VGND VPWR VPWR _059_ sky130_fd_sc_hd__inv_2
XFILLER_0_19_72 VGND VGND VPWR VPWR sky130_fd_sc_hd__fill_1
XPHY_EDGE_ROW_8_Left_36 VGND VGND VPWR VPWR sky130_fd_sc_hd__decap_3
XFILLER_0_21_73 VGND VGND VPWR VPWR sky130_fd_sc_hd__fill_2
XANTENNA__312__A _160_ VGND VGND VPWR VPWR sky130_fd_sc_hd__diode_2
XFILLER_0_26_29 VGND VGND VPWR VPWR sky130_fd_sc_hd__decap_8
XFILLER_0_26_18 VGND VGND VPWR VPWR sky130_fd_sc_hd__fill_2
XANTENNA__222__A _027_ VGND VGND VPWR VPWR sky130_fd_sc_hd__diode_2
XFILLER_0_21_175 VGND VGND VPWR VPWR sky130_fd_sc_hd__fill_2
XFILLER_0_21_164 VGND VGND VPWR VPWR sky130_fd_sc_hd__decap_4
XANTENNA__307__A _160_ VGND VGND VPWR VPWR sky130_fd_sc_hd__diode_2
XFILLER_0_8_158 VGND VGND VPWR VPWR sky130_fd_sc_hd__fill_2
XFILLER_0_8_136 VGND VGND VPWR VPWR sky130_fd_sc_hd__fill_2
XANTENNA_5 _018_ VGND VGND VPWR VPWR sky130_fd_sc_hd__diode_2
XANTENNA__217__A one_second_counter\[8\] VGND VGND VPWR VPWR sky130_fd_sc_hd__diode_2
XTAP_TAPCELL_ROW_18_115 VGND VPWR sky130_fd_sc_hd__tapvpwrvgnd_1
Xoutput7 net7 VGND VGND VPWR VPWR seg[5] sky130_fd_sc_hd__buf_2
XFILLER_0_5_106 VGND VGND VPWR VPWR sky130_fd_sc_hd__decap_6
XANTENNA__283__A1 _073_ VGND VGND VPWR VPWR sky130_fd_sc_hd__diode_2
XFILLER_0_7_93 VGND VGND VPWR VPWR sky130_fd_sc_hd__fill_1
XPHY_EDGE_ROW_21_Left_49 VGND VGND VPWR VPWR sky130_fd_sc_hd__decap_3
X_293_ _158_ VGND VGND VPWR VPWR net7 sky130_fd_sc_hd__buf_1
XANTENNA__320__A _161_ VGND VGND VPWR VPWR sky130_fd_sc_hd__diode_2
XFILLER_0_1_164 VGND VGND VPWR VPWR sky130_fd_sc_hd__decap_4
XANTENNA__256__A1 one_second_counter\[18\] VGND VGND VPWR VPWR sky130_fd_sc_hd__diode_2
XTAP_TAPCELL_ROW_20_121 VGND VPWR sky130_fd_sc_hd__tapvpwrvgnd_1
XANTENNA__230__A one_second_counter\[12\] VGND VGND VPWR VPWR sky130_fd_sc_hd__diode_2
X_345_ clknet_2_1__leaf_clk _006_ _043_ VGND VGND VPWR VPWR one_second_counter\[15\]
+ sky130_fd_sc_hd__dfrtp_1
X_276_ _127_ _148_ one_second_counter\[24\] VGND VGND VPWR VPWR _149_ sky130_fd_sc_hd__a21oi_1
XPHY_EDGE_ROW_21_Right_21 VGND VGND VPWR VPWR sky130_fd_sc_hd__decap_3
XANTENNA__315__A _160_ VGND VGND VPWR VPWR sky130_fd_sc_hd__diode_2
XPHY_EDGE_ROW_12_Right_12 VGND VGND VPWR VPWR sky130_fd_sc_hd__decap_3
X_328_ net1 VGND VGND VPWR VPWR _058_ sky130_fd_sc_hd__inv_2
X_259_ _136_ VGND VGND VPWR VPWR _137_ sky130_fd_sc_hd__inv_2
XANTENNA__225__A _095_ VGND VGND VPWR VPWR sky130_fd_sc_hd__diode_2
XFILLER_0_27_181 VGND VGND VPWR VPWR sky130_fd_sc_hd__decap_6
XPHY_EDGE_ROW_24_Left_52 VGND VGND VPWR VPWR sky130_fd_sc_hd__decap_3
XFILLER_0_10_97 VGND VGND VPWR VPWR sky130_fd_sc_hd__decap_3
XFILLER_0_27_3 VPWR VGND VPWR VGND sky130_ef_sc_hd__decap_12
XFILLER_0_1_51 VGND VGND VPWR VPWR sky130_fd_sc_hd__decap_3
XFILLER_0_16_63 VGND VGND VPWR VPWR sky130_fd_sc_hd__fill_1
XANTENNA_6 _094_ VGND VGND VPWR VPWR sky130_fd_sc_hd__diode_2
XFILLER_0_6_29 VGND VGND VPWR VPWR sky130_fd_sc_hd__decap_6
XANTENNA__323__A _161_ VGND VGND VPWR VPWR sky130_fd_sc_hd__diode_2
XPHY_EDGE_ROW_6_Right_6 VGND VGND VPWR VPWR sky130_fd_sc_hd__decap_3
XANTENNA__217__B _077_ VGND VGND VPWR VPWR sky130_fd_sc_hd__diode_2
Xoutput8 net8 VGND VGND VPWR VPWR seg[6] sky130_fd_sc_hd__buf_2
XANTENNA__233__A _117_ VGND VGND VPWR VPWR sky130_fd_sc_hd__diode_2
XANTENNA__268__C1 _027_ VGND VGND VPWR VPWR sky130_fd_sc_hd__diode_2
XANTENNA__318__A _161_ VGND VGND VPWR VPWR sky130_fd_sc_hd__diode_2
XTAP_TAPCELL_ROW_23_130 VGND VPWR sky130_fd_sc_hd__tapvpwrvgnd_1
X_292_ decoder.digit\[3\] decoder.digit\[1\] _156_ VGND VGND VPWR VPWR _158_ sky130_fd_sc_hd__or3_1
X_361_ clknet_2_0__leaf_clk _063_ _059_ VGND VGND VPWR VPWR decoder.digit\[3\] sky130_fd_sc_hd__dfrtp_4
XANTENNA__228__A one_second_counter\[11\] VGND VGND VPWR VPWR sky130_fd_sc_hd__diode_2
XFILLER_0_1_121 VGND VGND VPWR VPWR sky130_fd_sc_hd__fill_2
XFILLER_0_3_19 VPWR VGND VPWR VGND sky130_ef_sc_hd__decap_12
XANTENNA__230__B _114_ VGND VGND VPWR VPWR sky130_fd_sc_hd__diode_2
XANTENNA__256__A2 one_second_counter\[17\] VGND VGND VPWR VPWR sky130_fd_sc_hd__diode_2
X_275_ _147_ _145_ _148_ _127_ _027_ VGND VGND VPWR VPWR _015_ sky130_fd_sc_hd__a221oi_1
X_344_ clknet_2_2__leaf_clk _005_ _042_ VGND VGND VPWR VPWR one_second_counter\[14\]
+ sky130_fd_sc_hd__dfrtp_2
XFILLER_0_24_85 VPWR VGND VPWR VGND sky130_ef_sc_hd__decap_12
XANTENNA__241__A _095_ VGND VGND VPWR VPWR sky130_fd_sc_hd__diode_2
XANTENNA__326__A _161_ VGND VGND VPWR VPWR sky130_fd_sc_hd__diode_2
X_327_ _161_ VGND VGND VPWR VPWR _057_ sky130_fd_sc_hd__inv_2
XFILLER_0_19_105 VGND VGND VPWR VPWR sky130_fd_sc_hd__fill_2
XFILLER_0_19_63 VGND VGND VPWR VPWR sky130_fd_sc_hd__fill_1
XFILLER_0_19_30 VPWR VGND VPWR VGND sky130_ef_sc_hd__decap_12
X_189_ _086_ VGND VGND VPWR VPWR _027_ sky130_fd_sc_hd__clkbuf_4
XFILLER_0_10_32 VGND VGND VPWR VPWR sky130_fd_sc_hd__fill_2
XFILLER_0_10_21 VGND VGND VPWR VPWR sky130_fd_sc_hd__decap_3
X_258_ _127_ _135_ VGND VGND VPWR VPWR _136_ sky130_fd_sc_hd__and2_1
XFILLER_0_18_182 VGND VGND VPWR VPWR sky130_fd_sc_hd__decap_4
XANTENNA__236__A _095_ VGND VGND VPWR VPWR sky130_fd_sc_hd__diode_2
XFILLER_0_24_152 VGND VGND VPWR VPWR sky130_fd_sc_hd__fill_1
XFILLER_0_21_53 VGND VGND VPWR VPWR sky130_fd_sc_hd__decap_3
XFILLER_0_16_108 VGND VGND VPWR VPWR sky130_fd_sc_hd__fill_2
XFILLER_0_15_141 VPWR VGND VPWR VGND sky130_ef_sc_hd__decap_12
XFILLER_0_1_85 VPWR VGND VPWR VGND sky130_ef_sc_hd__decap_12
XANTENNA__222__C _109_ VGND VGND VPWR VPWR sky130_fd_sc_hd__diode_2
XFILLER_0_21_122 VGND VGND VPWR VPWR sky130_fd_sc_hd__decap_8
XFILLER_0_21_100 VGND VGND VPWR VPWR sky130_fd_sc_hd__fill_2
XFILLER_0_6_19 VGND VGND VPWR VPWR sky130_fd_sc_hd__fill_2
XFILLER_0_16_42 VPWR VGND VPWR VGND sky130_ef_sc_hd__decap_12
XFILLER_0_12_111 VGND VGND VPWR VPWR sky130_fd_sc_hd__fill_2
XFILLER_0_9_3 VGND VGND VPWR VPWR sky130_fd_sc_hd__decap_8
XFILLER_0_27_85 VPWR VGND VPWR VGND sky130_ef_sc_hd__decap_12
X_291_ _157_ VGND VGND VPWR VPWR net6 sky130_fd_sc_hd__buf_1
XFILLER_0_4_141 VGND VGND VPWR VPWR sky130_fd_sc_hd__decap_4
X_360_ clknet_2_0__leaf_clk _062_ _058_ VGND VGND VPWR VPWR decoder.digit\[2\] sky130_fd_sc_hd__dfrtp_4
XANTENNA__228__B one_second_counter\[10\] VGND VGND VPWR VPWR sky130_fd_sc_hd__diode_2
XFILLER_0_13_98 VPWR VGND VPWR VGND sky130_ef_sc_hd__decap_12
XFILLER_0_13_43 VPWR VGND VPWR VGND sky130_ef_sc_hd__decap_12
XANTENNA__244__A one_second_counter\[11\] VGND VGND VPWR VPWR sky130_fd_sc_hd__diode_2
XANTENNA__329__A net1 VGND VGND VPWR VPWR sky130_fd_sc_hd__diode_2
XFILLER_0_1_133 VPWR VGND VPWR VGND sky130_ef_sc_hd__decap_12
XANTENNA__256__A3 one_second_counter\[16\] VGND VGND VPWR VPWR sky130_fd_sc_hd__diode_2
XANTENNA_hold1_A one_second_enable VGND VGND VPWR VPWR sky130_fd_sc_hd__diode_2
X_274_ _083_ _135_ VGND VGND VPWR VPWR _148_ sky130_fd_sc_hd__and2_1
X_343_ clknet_2_0__leaf_clk _004_ _041_ VGND VGND VPWR VPWR one_second_counter\[13\]
+ sky130_fd_sc_hd__dfrtp_4
XFILLER_0_24_53 VGND VGND VPWR VPWR sky130_fd_sc_hd__fill_2
XANTENNA__174__A2 decoder.digit\[0\] VGND VGND VPWR VPWR sky130_fd_sc_hd__diode_2
X_326_ _161_ VGND VGND VPWR VPWR _056_ sky130_fd_sc_hd__inv_2
XFILLER_0_19_42 VPWR VGND VPWR VGND sky130_ef_sc_hd__decap_12
XFILLER_0_10_66 VGND VGND VPWR VPWR sky130_fd_sc_hd__fill_2
X_257_ one_second_counter\[19\] one_second_counter\[18\] one_second_counter\[17\]
+ one_second_counter\[16\] VGND VGND VPWR VPWR _135_ sky130_fd_sc_hd__and4_1
X_188_ _085_ VGND VGND VPWR VPWR _086_ sky130_fd_sc_hd__inv_2
XFILLER_0_19_117 VGND VGND VPWR VPWR sky130_fd_sc_hd__decap_4
X_309_ _160_ VGND VGND VPWR VPWR _040_ sky130_fd_sc_hd__inv_2
XFILLER_0_18_150 VGND VGND VPWR VPWR sky130_fd_sc_hd__fill_2
XANTENNA__252__A _027_ VGND VGND VPWR VPWR sky130_fd_sc_hd__diode_2
XFILLER_0_21_65 VGND VGND VPWR VPWR sky130_fd_sc_hd__fill_1
XFILLER_0_15_153 VPWR VGND VPWR VGND sky130_ef_sc_hd__decap_12
XFILLER_0_1_97 VGND VGND VPWR VPWR sky130_fd_sc_hd__fill_2
XANTENNA__162__A one_second_enable VGND VGND VPWR VPWR sky130_fd_sc_hd__diode_2
XFILLER_0_21_189 VGND VGND VPWR VPWR sky130_fd_sc_hd__fill_1
XTAP_TAPCELL_ROW_10_90 VGND VPWR sky130_fd_sc_hd__tapvpwrvgnd_1
XANTENNA__247__A one_second_counter\[16\] VGND VGND VPWR VPWR sky130_fd_sc_hd__diode_2
XFILLER_0_16_98 VGND VGND VPWR VPWR sky130_fd_sc_hd__fill_1
XFILLER_0_16_54 VGND VGND VPWR VPWR sky130_fd_sc_hd__decap_3
XFILLER_0_12_178 VGND VGND VPWR VPWR sky130_fd_sc_hd__decap_6
XFILLER_0_12_145 VPWR VGND VPWR VGND sky130_ef_sc_hd__decap_12
XFILLER_0_7_161 VGND VGND VPWR VPWR sky130_fd_sc_hd__fill_1
XFILLER_0_27_97 VPWR VGND VPWR VGND sky130_ef_sc_hd__decap_12
XFILLER_0_27_20 VGND VGND VPWR VPWR sky130_fd_sc_hd__decap_8
XANTENNA__228__C _109_ VGND VGND VPWR VPWR sky130_fd_sc_hd__diode_2
XANTENNA__260__A _095_ VGND VGND VPWR VPWR sky130_fd_sc_hd__diode_2
X_290_ decoder.digit\[3\] decoder.digit\[2\] decoder.digit\[0\] VGND VGND VPWR VPWR
+ _157_ sky130_fd_sc_hd__or3_1
XFILLER_0_13_55 VGND VGND VPWR VPWR sky130_fd_sc_hd__fill_1
XANTENNA__244__B one_second_counter\[10\] VGND VGND VPWR VPWR sky130_fd_sc_hd__diode_2
XFILLER_0_1_189 VGND VGND VPWR VPWR sky130_fd_sc_hd__fill_1
XFILLER_0_1_145 VGND VGND VPWR VPWR sky130_fd_sc_hd__fill_1
XTAP_TAPCELL_ROW_3_70 VGND VPWR sky130_fd_sc_hd__tapvpwrvgnd_1
XANTENNA__256__A4 _127_ VGND VGND VPWR VPWR sky130_fd_sc_hd__diode_2
XANTENNA__168__B1 _064_ VGND VGND VPWR VPWR sky130_fd_sc_hd__diode_2
X_342_ clknet_2_1__leaf_clk _003_ _040_ VGND VGND VPWR VPWR one_second_counter\[12\]
+ sky130_fd_sc_hd__dfrtp_2
XANTENNA__239__B _119_ VGND VGND VPWR VPWR sky130_fd_sc_hd__diode_2
X_273_ one_second_counter\[23\] VGND VGND VPWR VPWR _147_ sky130_fd_sc_hd__inv_2
XFILLER_0_24_76 VGND VGND VPWR VPWR sky130_fd_sc_hd__decap_8
XANTENNA__165__A decoder.digit\[3\] VGND VGND VPWR VPWR sky130_fd_sc_hd__diode_2
XANTENNA__241__C _123_ VGND VGND VPWR VPWR sky130_fd_sc_hd__diode_2
XFILLER_0_4_75 VGND VGND VPWR VPWR sky130_fd_sc_hd__fill_1
XFILLER_0_19_54 VGND VGND VPWR VPWR sky130_fd_sc_hd__fill_2
X_325_ _161_ VGND VGND VPWR VPWR _055_ sky130_fd_sc_hd__inv_2
X_187_ _073_ _084_ one_second_counter\[26\] VGND VGND VPWR VPWR _085_ sky130_fd_sc_hd__a21bo_2
XFILLER_0_10_12 VGND VGND VPWR VPWR sky130_fd_sc_hd__fill_2
XTAP_TAPCELL_ROW_0_60 VGND VPWR sky130_fd_sc_hd__tapvpwrvgnd_1
X_256_ one_second_counter\[18\] one_second_counter\[17\] one_second_counter\[16\]
+ _127_ one_second_counter\[19\] VGND VGND VPWR VPWR _134_ sky130_fd_sc_hd__a41o_1
Xclkload0 clknet_2_1__leaf_clk VGND VGND VPWR VPWR clkload0/X sky130_fd_sc_hd__clkbuf_4
XANTENNA__236__C _119_ VGND VGND VPWR VPWR sky130_fd_sc_hd__diode_2
XFILLER_0_21_77 VGND VGND VPWR VPWR sky130_fd_sc_hd__fill_2
X_308_ _160_ VGND VGND VPWR VPWR _039_ sky130_fd_sc_hd__inv_2
X_239_ _121_ _119_ VGND VGND VPWR VPWR _122_ sky130_fd_sc_hd__nand2_1
XANTENNA__162__B decoder.digit\[1\] VGND VGND VPWR VPWR sky130_fd_sc_hd__diode_2
XFILLER_0_15_165 VGND VGND VPWR VPWR sky130_fd_sc_hd__decap_3
XFILLER_0_15_121 VGND VGND VPWR VPWR sky130_fd_sc_hd__fill_2
XTAP_TAPCELL_ROW_10_91 VGND VPWR sky130_fd_sc_hd__tapvpwrvgnd_1
XANTENNA__247__B _127_ VGND VGND VPWR VPWR sky130_fd_sc_hd__diode_2
XFILLER_0_21_179 VGND VGND VPWR VPWR sky130_fd_sc_hd__fill_2
XFILLER_0_21_135 VGND VGND VPWR VPWR sky130_fd_sc_hd__decap_3
XANTENNA_clkbuf_0_clk_A clk VGND VGND VPWR VPWR sky130_fd_sc_hd__diode_2
XFILLER_0_8_107 VGND VGND VPWR VPWR sky130_fd_sc_hd__fill_2
XFILLER_0_25_3 VPWR VGND VPWR VGND sky130_ef_sc_hd__decap_12
XFILLER_0_12_157 VPWR VGND VPWR VGND sky130_ef_sc_hd__decap_12
XANTENNA__268__A2 _140_ VGND VGND VPWR VPWR sky130_fd_sc_hd__diode_2
XPHY_EDGE_ROW_19_Right_19 VGND VGND VPWR VPWR sky130_fd_sc_hd__decap_3
XANTENNA__258__A _127_ VGND VGND VPWR VPWR sky130_fd_sc_hd__diode_2
XFILLER_0_27_65 VGND VGND VPWR VPWR sky130_fd_sc_hd__fill_2
XFILLER_0_27_43 VGND VGND VPWR VPWR sky130_fd_sc_hd__fill_2
XPHY_EDGE_ROW_15_Left_43 VGND VGND VPWR VPWR sky130_fd_sc_hd__decap_3
XFILLER_0_4_165 VGND VGND VPWR VPWR sky130_fd_sc_hd__fill_2
XFILLER_0_7_42 VGND VGND VPWR VPWR sky130_fd_sc_hd__fill_2
XFILLER_0_7_53 VGND VGND VPWR VPWR sky130_fd_sc_hd__decap_3
XFILLER_0_7_97 VGND VGND VPWR VPWR sky130_fd_sc_hd__fill_2
XANTENNA__168__B2 decoder.digit\[2\] VGND VGND VPWR VPWR sky130_fd_sc_hd__diode_2
X_341_ clknet_2_3__leaf_clk _002_ _039_ VGND VGND VPWR VPWR one_second_counter\[11\]
+ sky130_fd_sc_hd__dfrtp_2
XPHY_EDGE_ROW_0_Left_28 VGND VGND VPWR VPWR sky130_fd_sc_hd__decap_3
X_272_ _146_ VGND VGND VPWR VPWR _014_ sky130_fd_sc_hd__clkbuf_1
XFILLER_0_24_99 VGND VGND VPWR VPWR sky130_fd_sc_hd__fill_2
XFILLER_0_24_33 VGND VGND VPWR VPWR sky130_fd_sc_hd__fill_2
XANTENNA__271__A _085_ VGND VGND VPWR VPWR sky130_fd_sc_hd__diode_2
XANTENNA__165__B decoder.digit\[1\] VGND VGND VPWR VPWR sky130_fd_sc_hd__diode_2
XFILLER_0_4_32 VGND VGND VPWR VPWR sky130_fd_sc_hd__fill_2
XANTENNA__181__A one_second_counter\[11\] VGND VGND VPWR VPWR sky130_fd_sc_hd__diode_2
X_255_ _132_ _129_ _133_ _095_ VGND VGND VPWR VPWR _009_ sky130_fd_sc_hd__o211a_1
X_324_ _161_ VGND VGND VPWR VPWR _054_ sky130_fd_sc_hd__inv_2
XFILLER_0_19_22 VGND VGND VPWR VPWR sky130_fd_sc_hd__decap_3
X_186_ _074_ _082_ _083_ one_second_counter\[24\] VGND VGND VPWR VPWR _084_ sky130_fd_sc_hd__o211ai_2
XFILLER_0_27_163 VGND VGND VPWR VPWR sky130_fd_sc_hd__decap_4
XFILLER_0_27_141 VGND VGND VPWR VPWR sky130_fd_sc_hd__decap_3
XTAP_TAPCELL_ROW_0_61 VGND VPWR sky130_fd_sc_hd__tapvpwrvgnd_1
XFILLER_0_18_141 VGND VGND VPWR VPWR sky130_fd_sc_hd__decap_4
Xclkload1 clknet_2_2__leaf_clk VGND VGND VPWR VPWR clkload1/Y sky130_fd_sc_hd__clkinv_1
XPHY_EDGE_ROW_3_Left_31 VGND VGND VPWR VPWR sky130_fd_sc_hd__decap_3
XFILLER_0_24_155 VPWR VGND VPWR VGND sky130_ef_sc_hd__decap_12
XFILLER_0_24_122 VPWR VGND VPWR VGND sky130_ef_sc_hd__decap_12
X_307_ _160_ VGND VGND VPWR VPWR _038_ sky130_fd_sc_hd__inv_2
XFILLER_0_21_23 VGND VGND VPWR VPWR sky130_fd_sc_hd__fill_1
X_238_ one_second_counter\[14\] VGND VGND VPWR VPWR _121_ sky130_fd_sc_hd__inv_2
XANTENNA__162__C decoder.digit\[0\] VGND VGND VPWR VPWR sky130_fd_sc_hd__diode_2
X_169_ _065_ _069_ VGND VGND VPWR VPWR _070_ sky130_fd_sc_hd__and2_1
XFILLER_0_15_177 VPWR VGND VPWR VGND sky130_ef_sc_hd__decap_12
XFILLER_0_21_169 VGND VGND VPWR VPWR sky130_fd_sc_hd__decap_4
XFILLER_0_16_67 VPWR VGND VPWR VGND sky130_ef_sc_hd__decap_12
XANTENNA__263__B _136_ VGND VGND VPWR VPWR sky130_fd_sc_hd__diode_2
XFILLER_0_18_3 VGND VGND VPWR VPWR sky130_fd_sc_hd__decap_4
XFILLER_0_12_169 VGND VGND VPWR VPWR sky130_fd_sc_hd__decap_4
XFILLER_0_11_180 VGND VGND VPWR VPWR sky130_fd_sc_hd__decap_4
XANTENNA__258__B _135_ VGND VGND VPWR VPWR sky130_fd_sc_hd__diode_2
XFILLER_0_27_77 VGND VGND VPWR VPWR sky130_fd_sc_hd__fill_2
XFILLER_0_27_55 VGND VGND VPWR VPWR sky130_fd_sc_hd__fill_1
XFILLER_0_27_33 VGND VGND VPWR VPWR sky130_fd_sc_hd__fill_1
XFILLER_0_4_111 VGND VGND VPWR VPWR sky130_fd_sc_hd__decap_8
XFILLER_0_4_122 VGND VGND VPWR VPWR sky130_fd_sc_hd__fill_2
XFILLER_0_4_133 VGND VGND VPWR VPWR sky130_fd_sc_hd__decap_6
XFILLER_0_4_155 VGND VGND VPWR VPWR sky130_fd_sc_hd__fill_2
XANTENNA__260__C _137_ VGND VGND VPWR VPWR sky130_fd_sc_hd__diode_2
XANTENNA__244__D _109_ VGND VGND VPWR VPWR sky130_fd_sc_hd__diode_2
XFILLER_0_7_3 VPWR VGND VPWR VGND sky130_ef_sc_hd__decap_12
XFILLER_0_13_57 VGND VGND VPWR VPWR sky130_fd_sc_hd__decap_4
XTAP_TAPCELL_ROW_14_101 VGND VPWR sky130_fd_sc_hd__tapvpwrvgnd_1
XFILLER_0_1_169 VPWR VGND VPWR VGND sky130_ef_sc_hd__decap_12
XFILLER_0_1_125 VGND VGND VPWR VPWR sky130_fd_sc_hd__fill_2
XANTENNA__179__A _075_ VGND VGND VPWR VPWR sky130_fd_sc_hd__diode_2
XANTENNA__269__A one_second_counter\[22\] VGND VGND VPWR VPWR sky130_fd_sc_hd__diode_2
XFILLER_0_24_67 VGND VGND VPWR VPWR sky130_fd_sc_hd__fill_2
X_271_ _085_ _144_ _145_ VGND VGND VPWR VPWR _146_ sky130_fd_sc_hd__and3_1
X_340_ clknet_2_2__leaf_clk _001_ _038_ VGND VGND VPWR VPWR one_second_counter\[10\]
+ sky130_fd_sc_hd__dfrtp_4
XANTENNA__181__B one_second_counter\[10\] VGND VGND VPWR VPWR sky130_fd_sc_hd__diode_2
XFILLER_0_10_36 VGND VGND VPWR VPWR sky130_fd_sc_hd__fill_2
X_185_ one_second_counter\[23\] one_second_counter\[22\] one_second_counter\[20\]
+ one_second_counter\[21\] VGND VGND VPWR VPWR _083_ sky130_fd_sc_hd__and4_1
X_323_ _161_ VGND VGND VPWR VPWR _053_ sky130_fd_sc_hd__inv_2
X_254_ one_second_counter\[17\] one_second_counter\[16\] _127_ one_second_counter\[18\]
+ VGND VGND VPWR VPWR _133_ sky130_fd_sc_hd__a31o_1
XFILLER_0_27_153 VGND VGND VPWR VPWR sky130_fd_sc_hd__fill_1
XANTENNA__192__A one_second_counter\[1\] VGND VGND VPWR VPWR sky130_fd_sc_hd__diode_2
XANTENNA__342__D _003_ VGND VGND VPWR VPWR sky130_fd_sc_hd__diode_2
XFILLER_0_18_186 VGND VGND VPWR VPWR sky130_fd_sc_hd__fill_1
Xclkload2 clknet_2_3__leaf_clk VGND VGND VPWR VPWR clkload2/Y sky130_fd_sc_hd__clkinv_1
XFILLER_0_24_167 VPWR VGND VPWR VGND sky130_ef_sc_hd__decap_12
XFILLER_0_24_134 VGND VGND VPWR VPWR sky130_fd_sc_hd__decap_3
X_168_ one_second_enable _068_ _064_ decoder.digit\[2\] VGND VGND VPWR VPWR _069_
+ sky130_fd_sc_hd__o2bb2a_1
X_237_ _120_ VGND VGND VPWR VPWR _004_ sky130_fd_sc_hd__clkbuf_1
X_306_ net1 VGND VGND VPWR VPWR _160_ sky130_fd_sc_hd__buf_4
XANTENNA__289__A1 decoder.digit\[0\] VGND VGND VPWR VPWR sky130_fd_sc_hd__diode_2
XFILLER_0_15_189 VGND VGND VPWR VPWR sky130_fd_sc_hd__fill_1
XFILLER_0_21_104 VGND VGND VPWR VPWR sky130_fd_sc_hd__decap_8
XFILLER_0_16_79 VGND VGND VPWR VPWR sky130_fd_sc_hd__decap_3
XFILLER_0_20_181 VGND VGND VPWR VPWR sky130_fd_sc_hd__fill_2
XFILLER_0_12_115 VGND VGND VPWR VPWR sky130_fd_sc_hd__decap_3
XANTENNA__274__B _135_ VGND VGND VPWR VPWR sky130_fd_sc_hd__diode_2
XPHY_EDGE_ROW_1_Right_1 VGND VGND VPWR VPWR sky130_fd_sc_hd__decap_3
XFILLER_0_7_120 VGND VGND VPWR VPWR sky130_fd_sc_hd__fill_2
XANTENNA__290__A decoder.digit\[3\] VGND VGND VPWR VPWR sky130_fd_sc_hd__diode_2
XTAP_TAPCELL_ROW_17_110 VGND VPWR sky130_fd_sc_hd__tapvpwrvgnd_1
XFILLER_0_4_145 VGND VGND VPWR VPWR sky130_fd_sc_hd__fill_1
XFILLER_0_4_178 VGND VGND VPWR VPWR sky130_fd_sc_hd__fill_2
XTAP_TAPCELL_ROW_14_102 VGND VPWR sky130_fd_sc_hd__tapvpwrvgnd_1
XFILLER_0_1_148 VGND VGND VPWR VPWR sky130_fd_sc_hd__fill_2
XANTENNA__285__A decoder.digit\[3\] VGND VGND VPWR VPWR sky130_fd_sc_hd__diode_2
XANTENNA__345__D _006_ VGND VGND VPWR VPWR sky130_fd_sc_hd__diode_2
XANTENNA__195__A one_second_counter\[2\] VGND VGND VPWR VPWR sky130_fd_sc_hd__diode_2
XFILLER_0_0_181 VGND VGND VPWR VPWR sky130_fd_sc_hd__decap_4
X_270_ one_second_counter\[22\] _143_ VGND VGND VPWR VPWR _145_ sky130_fd_sc_hd__nand2_1
XFILLER_0_24_57 VGND VGND VPWR VPWR sky130_fd_sc_hd__fill_2
XFILLER_0_4_67 VGND VGND VPWR VPWR sky130_fd_sc_hd__fill_2
XFILLER_0_4_78 VGND VGND VPWR VPWR sky130_fd_sc_hd__decap_4
X_322_ _161_ VGND VGND VPWR VPWR _052_ sky130_fd_sc_hd__inv_2
XANTENNA__192__B one_second_counter\[0\] VGND VGND VPWR VPWR sky130_fd_sc_hd__diode_2
X_253_ one_second_counter\[18\] one_second_counter\[17\] VGND VGND VPWR VPWR _132_
+ sky130_fd_sc_hd__nand2_1
XFILLER_0_19_68 VGND VGND VPWR VPWR sky130_fd_sc_hd__fill_2
X_184_ one_second_counter\[8\] _077_ _079_ _081_ VGND VGND VPWR VPWR _082_ sky130_fd_sc_hd__o31a_1
XFILLER_0_18_165 VGND VGND VPWR VPWR sky130_fd_sc_hd__decap_4
XFILLER_0_18_154 VGND VGND VPWR VPWR sky130_fd_sc_hd__decap_6
XFILLER_0_18_132 VGND VGND VPWR VPWR sky130_fd_sc_hd__fill_2
XANTENNA_output5_A net5 VGND VGND VPWR VPWR sky130_fd_sc_hd__diode_2
XFILLER_0_24_179 VGND VGND VPWR VPWR sky130_fd_sc_hd__decap_8
XFILLER_0_21_69 VGND VGND VPWR VPWR sky130_fd_sc_hd__fill_2
X_167_ decoder.digit\[0\] _067_ VGND VGND VPWR VPWR _068_ sky130_fd_sc_hd__nor2_1
X_236_ _095_ _118_ _119_ VGND VGND VPWR VPWR _120_ sky130_fd_sc_hd__and3_1
X_305_ _159_ VGND VGND VPWR VPWR _037_ sky130_fd_sc_hd__inv_2
XANTENNA__277__B _127_ VGND VGND VPWR VPWR sky130_fd_sc_hd__diode_2
XANTENNA__289__A2 _155_ VGND VGND VPWR VPWR sky130_fd_sc_hd__diode_2
XFILLER_0_1_57 VPWR VGND VPWR VGND sky130_ef_sc_hd__decap_12
X_219_ _107_ VGND VGND VPWR VPWR _025_ sky130_fd_sc_hd__clkbuf_1
XFILLER_0_12_138 VGND VGND VPWR VPWR sky130_fd_sc_hd__fill_2
XFILLER_0_11_160 VGND VGND VPWR VPWR sky130_fd_sc_hd__decap_8
XFILLER_0_7_165 VGND VGND VPWR VPWR sky130_fd_sc_hd__decap_3
XFILLER_0_27_57 VGND VGND VPWR VPWR sky130_fd_sc_hd__decap_8
XANTENNA__290__B decoder.digit\[2\] VGND VGND VPWR VPWR sky130_fd_sc_hd__diode_2
XTAP_TAPCELL_ROW_17_111 VGND VPWR sky130_fd_sc_hd__tapvpwrvgnd_1
Xclkbuf_0_clk clk VGND VGND VPWR VPWR clknet_0_clk sky130_fd_sc_hd__clkbuf_16
XPHY_EDGE_ROW_24_Right_24 VGND VGND VPWR VPWR sky130_fd_sc_hd__decap_3
XFILLER_0_23_3 VGND VGND VPWR VPWR sky130_fd_sc_hd__fill_2
XPHY_EDGE_ROW_15_Right_15 VGND VGND VPWR VPWR sky130_fd_sc_hd__decap_3
XTAP_TAPCELL_ROW_14_103 VGND VPWR sky130_fd_sc_hd__tapvpwrvgnd_1
XFILLER_0_13_15 VGND VGND VPWR VPWR sky130_fd_sc_hd__decap_4