*SPEF "ieee 1481-1999"
*DESIGN "project1"
*DATE "17:38:00 Monday April 21, 2025"
*VENDOR "The OpenROAD Project"
*PROGRAM "OpenROAD"
*VERSION "b16bda7e82721d10566ff7e2b68f1ff0be9f9e38"
*DESIGN_FLOW "NAME_SCOPE LOCAL" "PIN_CAP NONE"
*DIVIDER /
*DELIMITER :
*BUS_DELIMITER []
*T_UNIT 1 NS
*C_UNIT 1 PF
*R_UNIT 1 OHM
*L_UNIT 1 HENRY

*NAME_MAP
*3 in[0]
*4 in[1]
*5 in[2]
*6 in[3]
*7 in[4]
*8 in[5]
*9 in[6]
*10 in[7]
*11 out[0]
*12 out[1]
*13 out[2]
*14 out[3]
*15 out[4]
*16 out[5]
*17 out[6]
*18 out[7]
*19 _00_
*20 _01_
*21 _02_
*22 _03_
*23 _04_
*24 _05_
*25 _06_
*26 _07_
*27 _08_
*28 _09_
*29 net1
*30 net10
*31 net11
*32 net12
*33 net13
*34 net14
*35 net15
*36 net16
*37 net2
*38 net3
*39 net4
*40 net5
*41 net6
*42 net7
*43 net8
*44 net9
*45 FILLER_0_0_21
*46 FILLER_0_0_27
*47 FILLER_0_0_29
*48 FILLER_0_0_37
*49 FILLER_0_0_9
*50 FILLER_0_10_18
*51 FILLER_0_10_26
*52 FILLER_0_10_29
*53 FILLER_0_10_41
*54 FILLER_0_10_6
*55 FILLER_0_11_15
*56 FILLER_0_11_27
*57 FILLER_0_11_3
*58 FILLER_0_11_35
*59 FILLER_0_11_42
*60 FILLER_0_12_21
*61 FILLER_0_12_27
*62 FILLER_0_12_29
*63 FILLER_0_12_33
*64 FILLER_0_12_41
*65 FILLER_0_12_9
*66 FILLER_0_1_15
*67 FILLER_0_1_21
*68 FILLER_0_1_3
*69 FILLER_0_1_33
*70 FILLER_0_1_45
*71 FILLER_0_2_15
*72 FILLER_0_2_27
*73 FILLER_0_2_29
*74 FILLER_0_2_3
*75 FILLER_0_2_41
*76 FILLER_0_2_47
*77 FILLER_0_3_18
*78 FILLER_0_3_30
*79 FILLER_0_3_42
*80 FILLER_0_3_6
*81 FILLER_0_4_15
*82 FILLER_0_4_23
*83 FILLER_0_4_27
*84 FILLER_0_4_3
*85 FILLER_0_4_35
*86 FILLER_0_4_47
*87 FILLER_0_5_16
*88 FILLER_0_5_31
*89 FILLER_0_5_37
*90 FILLER_0_5_43
*91 FILLER_0_5_9
*92 FILLER_0_6_11
*93 FILLER_0_6_23
*94 FILLER_0_6_27
*95 FILLER_0_6_29
*96 FILLER_0_6_3
*97 FILLER_0_6_41
*98 FILLER_0_6_47
*99 FILLER_0_7_13
*100 FILLER_0_7_25
*101 FILLER_0_7_3
*102 FILLER_0_7_36
*103 FILLER_0_7_9
*104 FILLER_0_8_18
*105 FILLER_0_8_26
*106 FILLER_0_8_36
*107 FILLER_0_8_6
*108 FILLER_0_9_15
*109 FILLER_0_9_26
*110 FILLER_0_9_3
*111 FILLER_0_9_34
*112 FILLER_0_9_46
*113 PHY_EDGE_ROW_0_Left_13
*114 PHY_EDGE_ROW_0_Right_0
*115 PHY_EDGE_ROW_10_Left_23
*116 PHY_EDGE_ROW_10_Right_10
*117 PHY_EDGE_ROW_11_Left_24
*118 PHY_EDGE_ROW_11_Right_11
*119 PHY_EDGE_ROW_12_Left_25
*120 PHY_EDGE_ROW_12_Right_12
*121 PHY_EDGE_ROW_1_Left_14
*122 PHY_EDGE_ROW_1_Right_1
*123 PHY_EDGE_ROW_2_Left_15
*124 PHY_EDGE_ROW_2_Right_2
*125 PHY_EDGE_ROW_3_Left_16
*126 PHY_EDGE_ROW_3_Right_3
*127 PHY_EDGE_ROW_4_Left_17
*128 PHY_EDGE_ROW_4_Right_4
*129 PHY_EDGE_ROW_5_Left_18
*130 PHY_EDGE_ROW_5_Right_5
*131 PHY_EDGE_ROW_6_Left_19
*132 PHY_EDGE_ROW_6_Right_6
*133 PHY_EDGE_ROW_7_Left_20
*134 PHY_EDGE_ROW_7_Right_7
*135 PHY_EDGE_ROW_8_Left_21
*136 PHY_EDGE_ROW_8_Right_8
*137 PHY_EDGE_ROW_9_Left_22
*138 PHY_EDGE_ROW_9_Right_9
*139 TAP_TAPCELL_ROW_0_26
*140 TAP_TAPCELL_ROW_10_31
*141 TAP_TAPCELL_ROW_12_32
*142 TAP_TAPCELL_ROW_2_27
*143 TAP_TAPCELL_ROW_4_28
*144 TAP_TAPCELL_ROW_6_29
*145 TAP_TAPCELL_ROW_8_30
*146 _10_
*147 _11_
*148 _12_
*149 _13_
*150 _14_
*151 _15_
*152 _16_
*153 _17_
*154 _18_
*155 _19_
*156 _20_
*157 _21_
*158 _22_
*159 _23_
*160 _24_
*161 _25_
*162 _26_
*163 _27_
*164 input1
*165 input2
*166 input3
*167 input4
*168 input5
*169 input6
*170 input7
*171 input8
*172 output10
*173 output11
*174 output12
*175 output13
*176 output14
*177 output15
*178 output16
*179 output9

*PORTS
in[0] I
in[1] I
in[2] I
in[3] I
in[4] I
in[5] I
in[6] I
in[7] I
out[0] O
out[1] O
out[2] O
out[3] O
out[4] O
out[5] O
out[6] O
out[7] O

*D_NET *3 0.00114897
*CONN
*P in[0] I
*I *164:A I *D sky130_fd_sc_hd__buf_1
*CAP
1 in[0] 0.000574485
2 *164:A 0
3 *3:11 0.000574485
4 *3:11 *4:19 0
*RES
1 in[0] *3:11 31.4739 
2 *3:11 *164:A 23 
*END

*D_NET *4 0.000859669
*CONN
*P in[1] I
*I *165:A I *D sky130_fd_sc_hd__buf_1
*CAP
1 in[1] 0.00041832
2 *165:A 0
3 *4:19 0.00041832
4 *4:19 *166:A 0
5 *4:19 *29:8 2.30292e-05
6 *3:11 *4:19 0
*RES
1 in[1] *4:19 28.7327 
2 *4:19 *165:A 23 
*END

*D_NET *5 0.000615123
*CONN
*P in[2] I
*I *166:A I *D sky130_fd_sc_hd__buf_1
*CAP
1 in[2] 0.000307562
2 *166:A 0.000307562
3 *166:A *6:17 0
4 *4:19 *166:A 0
*RES
1 in[2] *166:A 49.8062 
*END

*D_NET *6 0.000742726
*CONN
*P in[3] I
*I *167:A I *D sky130_fd_sc_hd__clkbuf_1
*CAP
1 in[3] 0.000371363
2 *167:A 0
3 *6:17 0.000371363
4 *6:17 *148:A3 0
5 *6:17 *7:19 0
6 *6:17 *39:10 0
7 *166:A *6:17 0
*RES
1 in[3] *6:17 28.2148 
2 *6:17 *167:A 23 
*END

*D_NET *7 0.000867069
*CONN
*P in[4] I
*I *168:A I *D sky130_fd_sc_hd__buf_1
*CAP
1 in[4] 0.000365674
2 *168:A 0
3 *7:19 0.000365674
4 *7:19 *154:A 3.53115e-05
5 *7:19 *8:17 0
6 *7:19 *24:8 4.37033e-05
7 *7:19 *33:8 5.67058e-05
8 *6:17 *7:19 0
*RES
1 in[4] *7:19 28.7327 
2 *7:19 *168:A 23 
*END

*D_NET *8 0.000761607
*CONN
*P in[5] I
*I *169:A I *D sky130_fd_sc_hd__buf_1
*CAP
1 in[5] 0.000380803
2 *169:A 0
3 *8:17 0.000380803
4 *8:17 *170:A 0
5 *7:19 *8:17 0
*RES
1 in[5] *8:17 28.567 
2 *8:17 *169:A 23 
*END

*D_NET *9 0.000603153
*CONN
*P in[6] I
*I *170:A I *D sky130_fd_sc_hd__clkbuf_1
*CAP
1 in[6] 0.000301577
2 *170:A 0.000301577
3 *170:A *10:11 0
4 *8:17 *170:A 0
*RES
1 in[6] *170:A 49.8062 
*END

*D_NET *10 0.00130197
*CONN
*P in[7] I
*I *171:A I *D sky130_fd_sc_hd__buf_1
*CAP
1 in[7] 0.000650983
2 *171:A 0
3 *10:11 0.000650983
4 *170:A *10:11 0
*RES
1 in[7] *10:11 32.0837 
2 *10:11 *171:A 23 
*END

*D_NET *11 0.00145792
*CONN
*P out[0] O
*I *179:X O *D sky130_fd_sc_hd__buf_2
*CAP
1 out[0] 0.000187046
2 *179:X 0.00051754
3 *11:10 0.000704586
4 out[0] out[1] 0
5 *11:10 out[1] 2.33476e-05
6 *11:10 *30:14 0
7 *11:10 *34:12 2.54046e-05
*RES
1 *179:X *11:10 48.0982 
2 *11:10 out[0] 8.672 
*END

*D_NET *12 0.000491991
*CONN
*P out[1] O
*I *172:X O *D sky130_fd_sc_hd__buf_2
*CAP
1 out[1] 0.000234322
2 *172:X 0.000234322
3 out[1] out[2] 0
4 out[0] out[1] 0
5 *11:10 out[1] 2.33476e-05
*RES
1 *172:X out[1] 47.0789 
*END

*D_NET *13 0.000473905
*CONN
*P out[2] O
*I *173:X O *D sky130_fd_sc_hd__buf_2
*CAP
1 out[2] 0.000230581
2 *173:X 0.000230581
3 out[2] out[3] 0
4 out[2] *34:12 1.27424e-05
5 out[1] out[2] 0
*RES
1 *173:X out[2] 47.0789 
*END

*D_NET *14 0.000645346
*CONN
*P out[3] O
*I *174:X O *D sky130_fd_sc_hd__buf_2
*CAP
1 out[3] 0.000289936
2 *174:X 0.000289936
3 out[3] out[4] 0
4 out[3] *34:12 6.54744e-05
5 out[2] out[3] 0
*RES
1 *174:X out[3] 48.4875 
*END

*D_NET *15 0.000467688
*CONN
*P out[4] O
*I *175:X O *D sky130_fd_sc_hd__buf_2
*CAP
1 out[4] 0.000227473
2 *175:X 0.000227473
3 out[4] out[5] 0
4 out[4] *34:12 1.27424e-05
5 out[3] out[4] 0
*RES
1 *175:X out[4] 47.0789 
*END

*D_NET *16 0.000632469
*CONN
*P out[5] O
*I *176:X O *D sky130_fd_sc_hd__buf_2
*CAP
1 out[5] 0.000294605
2 *176:X 0.000294605
3 out[5] out[6] 0
4 out[5] *36:12 4.32584e-05
5 out[4] out[5] 0
*RES
1 *176:X out[5] 48.4875 
*END

*D_NET *17 0.00081608
*CONN
*P out[6] O
*I *177:X O *D sky130_fd_sc_hd__buf_2
*CAP
1 out[6] 0.00040804
2 *177:X 0.00040804
3 out[6] out[7] 0
4 out[5] out[6] 0
*RES
1 *177:X out[6] 47.5941 
*END

*D_NET *18 0.00110166
*CONN
*P out[7] O
*I *178:X O *D sky130_fd_sc_hd__clkbuf_4
*CAP
1 out[7] 0.000175108
2 *178:X 0.000375724
3 *18:8 0.000550832
4 out[6] out[7] 0
*RES
1 *178:X *18:8 45.7161 
2 *18:8 out[7] 8.672 
*END

*D_NET *19 0.00347597
*CONN
*I *162:A I *D sky130_fd_sc_hd__nor2_1
*I *147:B I *D sky130_fd_sc_hd__xnor2_1
*I *146:Y O *D sky130_fd_sc_hd__nor2_1
*CAP
1 *162:A 0
2 *147:B 0
3 *146:Y 0.000185012
4 *19:14 0.000352432
5 *19:8 0.000537443
6 *19:8 *146:B 0.000232734
7 *19:8 *162:B 0.000268074
8 *19:8 *24:8 0.000107128
9 *19:8 *33:8 0.000699631
10 *19:14 *158:A 0
11 *19:14 *21:18 0.000135547
12 *19:14 *25:8 0
13 *19:14 *41:36 0.000345131
14 *19:14 *43:12 0.000612837
*RES
1 *146:Y *19:8 31.265 
2 *19:8 *19:14 41.0614 
3 *19:14 *147:B 23 
4 *19:8 *162:A 23 
*END

*D_NET *20 0.00235682
*CONN
*I *150:A_N I *D sky130_fd_sc_hd__and2b_1
*I *148:X O *D sky130_fd_sc_hd__o31a_1
*CAP
1 *150:A_N 5.4232e-05
2 *148:X 0.000725242
3 *20:8 0.000779474
4 *150:A_N *25:8 7.03766e-05
5 *150:A_N *43:12 0.000141879
6 *20:8 *148:A2 0.000251676
7 *20:8 *163:A 5.97178e-05
8 *20:8 *21:14 7.96152e-06
9 *20:8 *44:8 0.000266265
*RES
1 *148:X *20:8 48.6264 
2 *20:8 *150:A_N 39.9057 
*END

*D_NET *21 0.00588973
*CONN
*I *150:B I *D sky130_fd_sc_hd__and2b_1
*I *153:B I *D sky130_fd_sc_hd__and2_1
*I *156:D I *D sky130_fd_sc_hd__or4_1
*I *157:A3 I *D sky130_fd_sc_hd__o31ai_1
*I *152:B I *D sky130_fd_sc_hd__nor2_1
*I *149:X O *D sky130_fd_sc_hd__or4_2
*CAP
1 *150:B 0.000102412
2 *153:B 0
3 *156:D 0
4 *157:A3 0
5 *152:B 0
6 *149:X 0.000240961
7 *21:63 0.000283954
8 *21:32 0.000289887
9 *21:24 0.00050201
10 *21:18 0.000397235
11 *21:14 0.00081907
12 *21:8 0.000693378
13 *150:B *22:8 0.00014196
14 *150:B *32:8 9.88574e-06
15 *21:8 *23:29 0.000132486
16 *21:8 *41:36 0
17 *21:14 *163:A 6.17437e-06
18 *21:14 *23:29 8.23009e-05
19 *21:14 *41:36 0
20 *21:14 *44:8 3.52937e-05
21 *21:18 *41:21 7.80035e-05
22 *21:18 *41:36 0.000284293
23 *21:18 *43:12 0.000108274
24 *21:24 *157:A2 0.000306081
25 *21:24 *26:8 0.000180218
26 *21:24 *41:21 0.00025307
27 *21:24 *43:12 0.000192671
28 *21:32 *152:A 0.000166513
29 *21:32 *157:A2 7.58407e-05
30 *21:32 *40:10 5.33597e-05
31 *21:32 *42:10 0
32 *21:63 *153:A 5.50049e-05
33 *21:63 *25:8 7.37399e-05
34 *21:63 *30:8 2.64616e-05
35 *21:63 *43:12 0.000129028
36 *21:63 *44:8 2.66596e-05
37 *19:14 *21:18 0.000135547
38 *20:8 *21:14 7.96152e-06
*RES
1 *149:X *21:8 43.4271 
2 *21:8 *21:14 20.8414 
3 *21:14 *21:18 20.075 
4 *21:18 *21:24 22.6021 
5 *21:24 *21:32 35.365 
6 *21:32 *152:B 23 
7 *21:24 *157:A3 23 
8 *21:18 *156:D 38 
9 *21:14 *21:63 34.8679 
10 *21:63 *153:B 23 
11 *21:8 *150:B 40.0507 
*END

*D_NET *22 0.0011625
*CONN
*I *151:A I *D sky130_fd_sc_hd__clkbuf_1
*I *150:X O *D sky130_fd_sc_hd__and2b_1
*CAP
1 *151:A 0
2 *150:X 0.000388278
3 *22:8 0.000388278
4 *22:8 *32:8 0.000243982
5 *150:B *22:8 0.00014196
*RES
1 *150:X *22:8 31.7414 
2 *22:8 *151:A 23 
*END

*D_NET *23 0.00800721
*CONN
*I *155:B I *D sky130_fd_sc_hd__xnor2_1
*I *154:A I *D sky130_fd_sc_hd__nor2_1
*I *152:Y O *D sky130_fd_sc_hd__nor2_1
*CAP
1 *155:B 0.000312953
2 *154:A 0.000569737
3 *152:Y 0.000158068
4 *23:29 0.000955018
5 *23:14 0.00171178
6 *23:8 0.000658048
7 *154:A *24:8 0.000732491
8 *155:B *41:36 0.000315857
9 *23:8 *152:A 9.64943e-05
10 *23:14 *152:A 7.03766e-05
11 *23:14 *156:C 0.000149452
12 *23:14 *24:8 8.52481e-05
13 *23:14 *28:8 0.000160182
14 *23:14 *29:14 1.06693e-05
15 *23:14 *40:10 0.000259365
16 *23:14 *41:21 0
17 *23:14 *41:36 0
18 *23:14 *42:10 4.58924e-05
19 *23:29 *29:10 0.000736682
20 *23:29 *29:12 0.000589151
21 *23:29 *29:14 0.000139647
22 *23:29 *41:36 0
23 *7:19 *154:A 3.53115e-05
24 *21:8 *23:29 0.000132486
25 *21:14 *23:29 8.23009e-05
*RES
1 *152:Y *23:8 40.0507 
2 *23:8 *23:14 27.5114 
3 *23:14 *154:A 32.57 
4 *23:14 *23:29 49.1607 
5 *23:29 *155:B 29.815 
*END

*D_NET *24 0.00264109
*CONN
*I *154:B I *D sky130_fd_sc_hd__nor2_1
*I *153:X O *D sky130_fd_sc_hd__and2_1
*CAP
1 *154:B 0
2 *153:X 0.000368578
3 *24:8 0.000368578
4 *24:8 *146:B 0.000232734
5 *24:8 *153:A 6.17437e-06
6 *24:8 *162:B 0.000268074
7 *24:8 *30:8 0.000135037
8 *24:8 *33:8 6.23061e-05
9 *24:8 *37:16 0.000231039
10 *154:A *24:8 0.000732491
11 *7:19 *24:8 4.37033e-05
12 *19:8 *24:8 0.000107128
13 *23:14 *24:8 8.52481e-05
*RES
1 *153:X *24:8 36.5057 
2 *24:8 *154:B 23 
*END

*D_NET *25 0.00396705
*CONN
*I *158:A I *D sky130_fd_sc_hd__and2_1
*I *160:B I *D sky130_fd_sc_hd__xor2_1
*I *156:X O *D sky130_fd_sc_hd__or4_1
*CAP
1 *158:A 0.000455028
2 *160:B 6.17858e-05
3 *156:X 0.000327472
4 *25:8 0.000844285
5 *158:A *26:14 0.000807932
6 *158:A *31:8 0.000141879
7 *158:A *41:36 0
8 *158:A *44:14 5.50106e-05
9 *160:B *174:A 5.3304e-05
10 *25:8 *153:A 2.71291e-05
11 *25:8 *156:A 4.08537e-05
12 *25:8 *174:A 0.000139647
13 *25:8 *26:14 0.000795729
14 *25:8 *43:12 7.28831e-05
15 *150:A_N *25:8 7.03766e-05
16 *19:14 *158:A 0
17 *19:14 *25:8 0
18 *21:63 *25:8 7.37399e-05
*RES
1 *156:X *25:8 48.7093 
2 *25:8 *160:B 39.0979 
3 *25:8 *158:A 49.7243 
*END

*D_NET *26 0.00500924
*CONN
*I *158:B I *D sky130_fd_sc_hd__and2_1
*I *157:Y O *D sky130_fd_sc_hd__o31ai_1
*CAP
1 *158:B 0
2 *157:Y 0.000376908
3 *26:14 0.000862343
4 *26:8 0.00123925
5 *26:14 *156:A 3.07161e-05
6 *26:14 *27:8 0.000407777
7 *26:14 *30:14 0
8 *26:14 *35:12 0.000308368
9 *26:14 *41:36 0
10 *26:14 *43:12 0
11 *158:A *26:14 0.000807932
12 *21:24 *26:8 0.000180218
13 *25:8 *26:14 0.000795729
*RES
1 *157:Y *26:8 42.9093 
2 *26:8 *26:14 41.8457 
3 *26:14 *158:B 23 
*END

*D_NET *27 0.00171844
*CONN
*I *159:A I *D sky130_fd_sc_hd__clkbuf_1
*I *158:X O *D sky130_fd_sc_hd__and2_1
*CAP
1 *159:A 0.00012384
2 *158:X 0.000305268
3 *27:8 0.000429108
4 *159:A *32:8 7.53384e-06
5 *159:A *35:8 3.71369e-05
6 *27:8 *30:14 0.000407777
7 *26:14 *27:8 0.000407777
*RES
1 *158:X *27:8 48.7093 
2 *27:8 *159:A 40.0507 
*END

*D_NET *28 0.00112243
*CONN
*I *162:B I *D sky130_fd_sc_hd__nor2_1
*I *161:X O *D sky130_fd_sc_hd__and2_1
*CAP
1 *162:B 6.17699e-05
2 *161:X 8.89519e-05
3 *28:8 0.000150722
4 *28:8 *161:B 3.3746e-05
5 *28:8 *29:14 4.6318e-06
6 *28:8 *40:10 8.62783e-05
7 *19:8 *162:B 0.000268074
8 *23:14 *28:8 0.000160182
9 *24:8 *162:B 0.000268074
*RES
1 *161:X *28:8 40.2579 
2 *28:8 *162:B 41.0036 
*END

*D_NET *29 0.00652084
*CONN
*I *149:B I *D sky130_fd_sc_hd__or4_2
*I *163:A I *D sky130_fd_sc_hd__clkbuf_1
*I *148:A2 I *D sky130_fd_sc_hd__o31a_1
*I *146:B I *D sky130_fd_sc_hd__nor2_1
*I *161:B I *D sky130_fd_sc_hd__and2_1
*I *164:X O *D sky130_fd_sc_hd__buf_1
*CAP
1 *149:B 0
2 *163:A 0.000107992
3 *148:A2 0.000317026
4 *146:B 3.93555e-05
5 *161:B 0.000152549
6 *164:X 0.000466077
7 *29:34 0.000425018
8 *29:14 0.000325969
9 *29:12 0.000436753
10 *29:10 0.000648348
11 *29:8 0.000811736
12 *161:B *40:10 0.000169665
13 *29:10 *39:23 7.89732e-05
14 *29:12 *39:23 0.000220781
15 *4:19 *29:8 2.30292e-05
16 *19:8 *146:B 0.000232734
17 *20:8 *148:A2 0.000251676
18 *20:8 *163:A 5.97178e-05
19 *21:14 *163:A 6.17437e-06
20 *23:14 *29:14 1.06693e-05
21 *23:29 *29:10 0.000736682
22 *23:29 *29:12 0.000589151
23 *23:29 *29:14 0.000139647
24 *24:8 *146:B 0.000232734
25 *28:8 *161:B 3.3746e-05
26 *28:8 *29:14 4.6318e-06
*RES
1 *164:X *29:8 45.2914 
2 *29:8 *29:10 10.005 
3 *29:10 *29:12 7.89214 
4 *29:12 *29:14 2.61 
5 *29:14 *161:B 41.3143 
6 *29:14 *146:B 40.5271 
7 *29:12 *29:34 15 
8 *29:34 *148:A2 29.8357 
9 *29:34 *163:A 25.0507 
10 *29:10 *149:B 38 
*END

*D_NET *30 0.0042996
*CONN
*I *172:A I *D sky130_fd_sc_hd__buf_2
*I *162:Y O *D sky130_fd_sc_hd__nor2_1
*CAP
1 *172:A 0
2 *162:Y 0.000387615
3 *30:14 0.000717326
4 *30:8 0.00110494
5 *30:8 *153:A 3.83617e-05
6 *30:8 *33:8 3.46673e-05
7 *30:14 *34:8 0.000103637
8 *30:14 *34:12 0
9 *30:14 *35:12 0.000296947
10 *30:14 *36:12 0
11 *30:14 *44:14 0.00104683
12 *11:10 *30:14 0
13 *21:63 *30:8 2.64616e-05
14 *24:8 *30:8 0.000135037
15 *26:14 *30:14 0
16 *27:8 *30:14 0.000407777
*RES
1 *162:Y *30:8 42.9093 
2 *30:8 *30:14 36.3357 
3 *30:14 *172:A 23 
*END

*D_NET *31 0.00104579
*CONN
*I *173:A I *D sky130_fd_sc_hd__buf_2
*I *147:Y O *D sky130_fd_sc_hd__xnor2_1
*CAP
1 *173:A 0.000376819
2 *147:Y 7.51353e-05
3 *31:8 0.000451954
4 *31:8 *41:36 0
5 *158:A *31:8 0.000141879
*RES
1 *147:Y *31:8 39.9057 
2 *31:8 *173:A 43.3857 
*END

*D_NET *32 0.00308865
*CONN
*I *174:A I *D sky130_fd_sc_hd__buf_2
*I *151:X O *D sky130_fd_sc_hd__clkbuf_1
*CAP
1 *174:A 0.000352417
2 *151:X 0.000754636
3 *32:8 0.00110705
4 *174:A *36:8 0.000349818
5 *174:A *43:12 7.03766e-05
6 *150:B *32:8 9.88574e-06
7 *159:A *32:8 7.53384e-06
8 *160:B *174:A 5.3304e-05
9 *22:8 *32:8 0.000243982
10 *25:8 *174:A 0.000139647
*RES
1 *151:X *32:8 48.15 
2 *32:8 *174:A 45.2914 
*END

*D_NET *33 0.00363166
*CONN
*I *175:A I *D sky130_fd_sc_hd__buf_2
*I *154:Y O *D sky130_fd_sc_hd__nor2_1
*CAP
1 *175:A 0
2 *154:Y 0.000708606
3 *33:8 0.000708606
4 *33:8 *153:A 0.000180224
5 *33:8 *37:16 0.000128096
6 *33:8 *40:6 0.000577798
7 *33:8 *40:34 0.00047502
8 *7:19 *33:8 5.67058e-05
9 *19:8 *33:8 0.000699631
10 *24:8 *33:8 6.23061e-05
11 *30:8 *33:8 3.46673e-05
*RES
1 *154:Y *33:8 42.575 
2 *33:8 *175:A 23 
*END

*D_NET *34 0.00372039
*CONN
*I *176:A I *D sky130_fd_sc_hd__buf_2
*I *155:Y O *D sky130_fd_sc_hd__xnor2_1
*CAP
1 *176:A 0
2 *155:Y 0.000130037
3 *34:12 0.00107858
4 *34:8 0.00120862
5 *34:12 *36:12 0.00108316
6 *34:12 *44:14 0
7 out[2] *34:12 1.27424e-05
8 out[3] *34:12 6.54744e-05
9 out[4] *34:12 1.27424e-05
10 *11:10 *34:12 2.54046e-05
11 *30:14 *34:8 0.000103637
12 *30:14 *34:12 0
*RES
1 *155:Y *34:8 40.0507 
2 *34:8 *34:12 39.4429 
3 *34:12 *176:A 23 
*END

*D_NET *35 0.00254136
*CONN
*I *177:A I *D sky130_fd_sc_hd__buf_2
*I *159:X O *D sky130_fd_sc_hd__clkbuf_1
*CAP
1 *177:A 0
2 *159:X 0.000120054
3 *35:12 0.000829402
4 *35:8 0.000949455
5 *35:12 *36:12 0
6 *35:12 *43:12 0
7 *159:A *35:8 3.71369e-05
8 *26:14 *35:12 0.000308368
9 *30:14 *35:12 0.000296947
*RES
1 *159:X *35:8 39.5743 
2 *35:8 *35:12 34.1607 
3 *35:12 *177:A 23 
*END

*D_NET *36 0.00377591
*CONN
*I *178:A I *D sky130_fd_sc_hd__clkbuf_4
*I *160:X O *D sky130_fd_sc_hd__xor2_1
*CAP
1 *178:A 0
2 *160:X 0.000189898
3 *36:12 0.000892314
4 *36:8 0.00108221
5 *36:12 *44:14 0.000135252
6 out[5] *36:12 4.32584e-05
7 *174:A *36:8 0.000349818
8 *30:14 *36:12 0
9 *34:12 *36:12 0.00108316
10 *35:12 *36:12 0
*RES
1 *160:X *36:8 41.9564 
2 *36:8 *36:12 38.0343 
3 *36:12 *178:A 23 
*END

*D_NET *37 0.00444847
*CONN
*I *149:A I *D sky130_fd_sc_hd__or4_2
*I *148:A1 I *D sky130_fd_sc_hd__o31a_1
*I *146:A I *D sky130_fd_sc_hd__nor2_1
*I *161:A I *D sky130_fd_sc_hd__and2_1
*I *165:X O *D sky130_fd_sc_hd__buf_1
*CAP
1 *149:A 0.000372987
2 *148:A1 0
3 *146:A 0
4 *161:A 0
5 *165:X 0.000365833
6 *37:24 0.000326318
7 *37:16 0.000543264
8 *37:10 0.000604374
9 *37:8 0.00112625
10 *149:A *147:A 4.96717e-05
11 *149:A *38:23 0.000293792
12 *37:8 *38:10 4.95339e-05
13 *37:10 *148:A3 0.000303716
14 *37:10 *38:10 3.3123e-05
15 *37:10 *39:10 1.62615e-05
16 *37:16 *39:10 4.21594e-06
17 *24:8 *37:16 0.000231039
18 *33:8 *37:16 0.000128096
*RES
1 *165:X *37:8 45.1879 
2 *37:8 *37:10 9.30071 
3 *37:10 *37:16 20.1371 
4 *37:16 *37:24 35.4893 
5 *37:24 *161:A 23 
6 *37:16 *146:A 23 
7 *37:10 *148:A1 38 
8 *37:8 *149:A 45.3121 
*END

*D_NET *38 0.00308256
*CONN
*I *147:A I *D sky130_fd_sc_hd__xnor2_1
*I *149:C I *D sky130_fd_sc_hd__or4_2
*I *148:A3 I *D sky130_fd_sc_hd__o31a_1
*I *166:X O *D sky130_fd_sc_hd__buf_1
*CAP
1 *147:A 0.000282376
2 *149:C 0
3 *148:A3 0.00024757
4 *166:X 0.000159146
5 *38:23 0.000604583
6 *38:10 0.000728924
7 *148:A3 *39:10 0.000330125
8 *149:A *147:A 4.96717e-05
9 *149:A *38:23 0.000293792
10 *6:17 *148:A3 0
11 *37:8 *38:10 4.95339e-05
12 *37:10 *148:A3 0.000303716
13 *37:10 *38:10 3.3123e-05
*RES
1 *166:X *38:10 40.8793 
2 *38:10 *148:A3 45.8921 
3 *38:10 *38:23 21.815 
4 *38:23 *149:C 23 
5 *38:23 *147:A 27.93 
*END

*D_NET *39 0.0024614
*CONN
*I *149:D I *D sky130_fd_sc_hd__or4_2
*I *148:B1 I *D sky130_fd_sc_hd__o31a_1
*I *167:X O *D sky130_fd_sc_hd__clkbuf_1
*CAP
1 *149:D 0
2 *148:B1 0
3 *167:X 0
4 *39:23 0.000728037
5 *39:10 0.000177487
6 *39:4 0.000905523
7 *148:A3 *39:10 0.000330125
8 *6:17 *39:10 0
9 *29:10 *39:23 7.89732e-05
10 *29:12 *39:23 0.000220781
11 *37:10 *39:10 1.62615e-05
12 *37:16 *39:10 4.21594e-06
*RES
1 *167:X *39:4 23 
2 *39:4 *39:10 35.075 
3 *39:10 *148:B1 23 
4 *39:4 *39:23 40.8336 
5 *39:23 *149:D 23 
*END

*D_NET *40 0.00532258
*CONN
*I *153:A I *D sky130_fd_sc_hd__and2_1
*I *156:A I *D sky130_fd_sc_hd__or4_1
*I *157:A1 I *D sky130_fd_sc_hd__o31ai_1
*I *152:A I *D sky130_fd_sc_hd__nor2_1
*I *168:X O *D sky130_fd_sc_hd__buf_1
*CAP
1 *153:A 9.88869e-05
2 *156:A 6.06274e-05
3 *157:A1 0
4 *152:A 0.000167872
5 *168:X 0.000418942
6 *40:34 0.000526366
7 *40:10 0.00043873
8 *40:6 0.00105665
9 *153:A *43:12 5.15096e-05
10 *156:A *43:12 0.000169665
11 *161:B *40:10 0.000169665
12 *21:32 *152:A 0.000166513
13 *21:32 *40:10 5.33597e-05
14 *21:63 *153:A 5.50049e-05
15 *23:8 *152:A 9.64943e-05
16 *23:14 *152:A 7.03766e-05
17 *23:14 *40:10 0.000259365
18 *24:8 *153:A 6.17437e-06
19 *25:8 *153:A 2.71291e-05
20 *25:8 *156:A 4.08537e-05
21 *26:14 *156:A 3.07161e-05
22 *28:8 *40:10 8.62783e-05
23 *30:8 *153:A 3.83617e-05
24 *33:8 *153:A 0.000180224
25 *33:8 *40:6 0.000577798
26 *33:8 *40:34 0.00047502
*RES
1 *168:X *40:6 29.3386 
2 *40:6 *40:10 22.8921 
3 *40:10 *152:A 42.3293 
4 *40:10 *157:A1 38 
5 *40:6 *40:34 20.3857 
6 *40:34 *156:A 40.2579 
7 *40:34 *153:A 40.9 
*END

*D_NET *41 0.00649444
*CONN
*I *155:A I *D sky130_fd_sc_hd__xnor2_1
*I *156:B I *D sky130_fd_sc_hd__or4_1
*I *157:A2 I *D sky130_fd_sc_hd__o31ai_1
*I *169:X O *D sky130_fd_sc_hd__buf_1
*CAP
1 *155:A 0
2 *156:B 5.43738e-05
3 *157:A2 0.000207485
4 *169:X 0.000721628
5 *41:36 0.00120635
6 *41:21 0.00136603
7 *41:8 0.00103442
8 *156:B *156:C 2.64616e-05
9 *157:A2 *156:C 7.56417e-05
10 *157:A2 *43:12 6.7177e-06
11 *41:21 *156:C 0.000137061
12 *155:B *41:36 0.000315857
13 *158:A *41:36 0
14 *19:14 *41:36 0.000345131
15 *21:8 *41:36 0
16 *21:14 *41:36 0
17 *21:18 *41:21 7.80035e-05
18 *21:18 *41:36 0.000284293
19 *21:24 *157:A2 0.000306081
20 *21:24 *41:21 0.00025307
21 *21:32 *157:A2 7.58407e-05
22 *23:14 *41:21 0
23 *23:14 *41:36 0
24 *23:29 *41:36 0
25 *26:14 *41:36 0
26 *31:8 *41:36 0
*RES
1 *169:X *41:8 49.1029 
2 *41:8 *157:A2 43.0232 
3 *41:8 *41:21 4.37071 
4 *41:21 *156:B 38.6214 
5 *41:21 *41:36 40.5821 
6 *41:36 *155:A 23 
*END

*D_NET *42 0.00366301
*CONN
*I *156:C I *D sky130_fd_sc_hd__or4_1
*I *157:B1 I *D sky130_fd_sc_hd__o31ai_1
*I *170:X O *D sky130_fd_sc_hd__clkbuf_1
*CAP
1 *156:C 0.000342181
2 *157:B1 0
3 *170:X 0.000625098
4 *42:10 0.000586646
5 *42:8 0.000869562
6 *156:C *43:12 0
7 *42:8 *43:8 0.000805018
8 *42:10 *43:12 0
9 *156:B *156:C 2.64616e-05
10 *157:A2 *156:C 7.56417e-05
11 *21:32 *42:10 0
12 *23:14 *156:C 0.000149452
13 *23:14 *42:10 4.58924e-05
14 *41:21 *156:C 0.000137061
*RES
1 *170:X *42:8 48.15 
2 *42:8 *42:10 4.72286 
3 *42:10 *157:B1 38 
4 *42:10 *156:C 46.1821 
*END

*D_NET *43 0.00493206
*CONN
*I *160:A I *D sky130_fd_sc_hd__xor2_1
*I *171:X O *D sky130_fd_sc_hd__buf_1
*CAP
1 *160:A 0
2 *171:X 0.000432455
3 *43:12 0.000853148
4 *43:8 0.0012856
5 *150:A_N *43:12 0.000141879
6 *153:A *43:12 5.15096e-05
7 *156:A *43:12 0.000169665
8 *156:C *43:12 0
9 *157:A2 *43:12 6.7177e-06
10 *174:A *43:12 7.03766e-05
11 *19:14 *43:12 0.000612837
12 *21:18 *43:12 0.000108274
13 *21:24 *43:12 0.000192671
14 *21:63 *43:12 0.000129028
15 *25:8 *43:12 7.28831e-05
16 *26:14 *43:12 0
17 *35:12 *43:12 0
18 *42:8 *43:8 0.000805018
19 *42:10 *43:12 0
*RES
1 *171:X *43:8 49.1029 
2 *43:8 *43:12 36.9779 
3 *43:12 *160:A 23 
*END

*D_NET *44 0.0035444
*CONN
*I *179:A I *D sky130_fd_sc_hd__buf_2
*I *163:X O *D sky130_fd_sc_hd__clkbuf_1
*CAP
1 *179:A 0
2 *163:X 0.000402241
3 *44:14 0.000587305
4 *44:8 0.000989546
5 *158:A *44:14 5.50106e-05
6 *20:8 *44:8 0.000266265
7 *21:14 *44:8 3.52937e-05
8 *21:63 *44:8 2.66596e-05
9 *30:14 *44:14 0.00104683
10 *34:12 *44:14 0
11 *36:12 *44:14 0.000135252
*RES
1 *163:X *44:8 44.815 
2 *44:8 *44:14 30.9293 
3 *44:14 *179:A 23 
*END
