*SPEF "ieee 1481-1999"
*DESIGN "ZeroToFiveCounter"
*DATE "13:42:25 Thursday May 15, 2025"
*VENDOR "The OpenROAD Project"
*PROGRAM "OpenROAD"
*VERSION "b16bda7e82721d10566ff7e2b68f1ff0be9f9e38"
*DESIGN_FLOW "NAME_SCOPE LOCAL" "PIN_CAP NONE"
*DIVIDER /
*DELIMITER :
*BUS_DELIMITER []
*T_UNIT 1 NS
*C_UNIT 1 PF
*R_UNIT 1 OHM
*L_UNIT 1 HENRY

*NAME_MAP
*3 net10
*4 net11
*5 net12
*6 net13
*7 net14
*8 net15
*9 net16
*10 net9
*11 clk
*12 rst
*13 seg[0]
*14 seg[1]
*15 seg[2]
*16 seg[3]
*17 seg[4]
*18 seg[5]
*19 seg[6]
*20 _000_
*21 _001_
*22 _002_
*23 _003_
*24 _004_
*25 _005_
*26 _006_
*27 _007_
*28 _008_
*29 _009_
*30 _010_
*31 _011_
*32 _012_
*33 _013_
*34 _014_
*35 _015_
*36 _016_
*37 _017_
*38 _018_
*39 _019_
*40 _020_
*41 _021_
*42 _022_
*43 _023_
*44 _024_
*45 _025_
*46 _026_
*47 _027_
*48 _028_
*49 _029_
*50 _030_
*51 _031_
*52 _032_
*53 _033_
*54 _034_
*55 _035_
*56 _036_
*57 _037_
*58 _038_
*59 _039_
*60 _040_
*61 _041_
*62 _042_
*63 _043_
*64 _044_
*65 _045_
*66 _046_
*67 _047_
*68 _048_
*69 _049_
*70 _050_
*71 _051_
*72 _052_
*73 _053_
*74 _054_
*75 _055_
*76 _056_
*77 _057_
*78 _058_
*79 _059_
*80 _060_
*81 _061_
*82 _062_
*83 _063_
*84 _064_
*85 _065_
*86 _066_
*87 _067_
*88 _068_
*89 _069_
*90 _070_
*91 _071_
*92 _072_
*93 _073_
*94 _074_
*95 _075_
*96 _076_
*97 _077_
*98 _078_
*99 _079_
*100 _080_
*101 _081_
*102 _082_
*103 _083_
*104 _084_
*105 _085_
*106 _086_
*107 _087_
*108 _088_
*109 _089_
*110 _090_
*111 _091_
*112 _092_
*113 _093_
*114 _094_
*115 _095_
*116 _096_
*117 _097_
*118 _098_
*119 _099_
*120 _100_
*121 _101_
*122 _102_
*123 _103_
*124 _104_
*125 _105_
*126 _106_
*127 _107_
*128 _108_
*129 _109_
*130 _110_
*131 _111_
*132 _112_
*133 _113_
*134 _114_
*135 _115_
*136 _116_
*137 _117_
*138 _118_
*139 _119_
*140 _120_
*141 _121_
*142 _122_
*143 _123_
*144 _124_
*145 _125_
*146 _126_
*147 _127_
*148 _128_
*149 _129_
*150 _130_
*151 _131_
*152 _132_
*153 _133_
*154 _134_
*155 _135_
*156 _136_
*157 _137_
*158 _138_
*159 _139_
*160 _140_
*161 _141_
*162 _142_
*163 _143_
*164 _144_
*165 _145_
*166 _146_
*167 _147_
*168 _148_
*169 _149_
*170 _150_
*171 _151_
*172 _152_
*173 _153_
*174 _154_
*175 _155_
*176 _156_
*177 _157_
*178 _158_
*179 _159_
*180 _160_
*181 _161_
*182 clknet_0_clk
*183 clknet_2_0__leaf_clk
*184 clknet_2_1__leaf_clk
*185 clknet_2_2__leaf_clk
*186 clknet_2_3__leaf_clk
*187 decoder\.digit\[0\]
*188 decoder\.digit\[1\]
*189 decoder\.digit\[2\]
*190 decoder\.digit\[3\]
*191 net1
*192 net17
*193 net18
*194 net2
*195 net3
*196 net4
*197 net5
*198 net6
*199 net7
*200 net8
*201 one_second_counter\[0\]
*202 one_second_counter\[10\]
*203 one_second_counter\[11\]
*204 one_second_counter\[12\]
*205 one_second_counter\[13\]
*206 one_second_counter\[14\]
*207 one_second_counter\[15\]
*208 one_second_counter\[16\]
*209 one_second_counter\[17\]
*210 one_second_counter\[18\]
*211 one_second_counter\[19\]
*212 one_second_counter\[1\]
*213 one_second_counter\[20\]
*214 one_second_counter\[21\]
*215 one_second_counter\[22\]
*216 one_second_counter\[23\]
*217 one_second_counter\[24\]
*218 one_second_counter\[25\]
*219 one_second_counter\[26\]
*220 one_second_counter\[2\]
*221 one_second_counter\[3\]
*222 one_second_counter\[4\]
*223 one_second_counter\[5\]
*224 one_second_counter\[6\]
*225 one_second_counter\[7\]
*226 one_second_counter\[8\]
*227 one_second_counter\[9\]
*228 one_second_enable
*229 ANTENNA_1
*230 ANTENNA_2
*231 ANTENNA_3
*232 ANTENNA_4
*233 ANTENNA_5
*234 ANTENNA_6
*235 ANTENNA__162__A
*236 ANTENNA__162__B
*237 ANTENNA__162__C
*238 ANTENNA__163__A
*239 ANTENNA__163__B
*240 ANTENNA__164__A
*241 ANTENNA__164__B
*242 ANTENNA__165__A
*243 ANTENNA__165__B
*244 ANTENNA__166__A
*245 ANTENNA__167__A
*246 ANTENNA__168__A1_N
*247 ANTENNA__168__B1
*248 ANTENNA__168__B2
*249 ANTENNA__169__A
*250 ANTENNA__171__A1
*251 ANTENNA__171__A2
*252 ANTENNA__171__B1
*253 ANTENNA__172__A
*254 ANTENNA__173__A1
*255 ANTENNA__173__B1
*256 ANTENNA__174__A2
*257 ANTENNA__175__A
*258 ANTENNA__176__A1
*259 ANTENNA__176__A2
*260 ANTENNA__176__B1
*261 ANTENNA__177__B
*262 ANTENNA__177__C
*263 ANTENNA__177__D
*264 ANTENNA__179__A
*265 ANTENNA__180__A
*266 ANTENNA__180__B
*267 ANTENNA__180__C
*268 ANTENNA__180__D
*269 ANTENNA__181__A
*270 ANTENNA__181__B
*271 ANTENNA__182__A_N
*272 ANTENNA__182__B
*273 ANTENNA__182__C
*274 ANTENNA__182__D
*275 ANTENNA__183__A_N
*276 ANTENNA__183__B
*277 ANTENNA__183__D
*278 ANTENNA__184__A1
*279 ANTENNA__184__A2
*280 ANTENNA__185__B
*281 ANTENNA__187__A1
*282 ANTENNA__188__A
*283 ANTENNA__190__B
*284 ANTENNA__191__A
*285 ANTENNA__191__B
*286 ANTENNA__192__A
*287 ANTENNA__192__B
*288 ANTENNA__193__B
*289 ANTENNA__195__A
*290 ANTENNA__195__B
*291 ANTENNA__195__C
*292 ANTENNA__196__A1
*293 ANTENNA__196__A2
*294 ANTENNA__196__B1
*295 ANTENNA__197__B
*296 ANTENNA__199__A1
*297 ANTENNA__199__A2
*298 ANTENNA__199__A3
*299 ANTENNA__200__A_N
*300 ANTENNA__200__B
*301 ANTENNA__202__A
*302 ANTENNA__203__B
*303 ANTENNA__204__B
*304 ANTENNA__205__A
*305 ANTENNA__207__A2
*306 ANTENNA__208__C
*307 ANTENNA__209__A
*308 ANTENNA__212__A
*309 ANTENNA__215__C1
*310 ANTENNA__216__A
*311 ANTENNA__216__B
*312 ANTENNA__217__A
*313 ANTENNA__217__B
*314 ANTENNA__218__B
*315 ANTENNA__220__A1
*316 ANTENNA__220__A2
*317 ANTENNA__221__B
*318 ANTENNA__221__C
*319 ANTENNA__222__A
*320 ANTENNA__222__C
*321 ANTENNA__223__A
*322 ANTENNA__223__B
*323 ANTENNA__224__A
*324 ANTENNA__224__B
*325 ANTENNA__225__A
*326 ANTENNA__227__A1
*327 ANTENNA__227__A2
*328 ANTENNA__227__B1
*329 ANTENNA__228__A
*330 ANTENNA__228__B
*331 ANTENNA__228__C
*332 ANTENNA__229__A
*333 ANTENNA__229__C
*334 ANTENNA__230__A
*335 ANTENNA__230__B
*336 ANTENNA__231__A
*337 ANTENNA__231__B
*338 ANTENNA__232__A
*339 ANTENNA__233__A
*340 ANTENNA__234__A1
*341 ANTENNA__234__A2
*342 ANTENNA__234__B1
*343 ANTENNA__235__A
*344 ANTENNA__235__B
*345 ANTENNA__235__C
*346 ANTENNA__236__A
*347 ANTENNA__236__C
*348 ANTENNA__237__A
*349 ANTENNA__238__A
*350 ANTENNA__239__B
*351 ANTENNA__240__B
*352 ANTENNA__241__A
*353 ANTENNA__241__C
*354 ANTENNA__243__A
*355 ANTENNA__244__A
*356 ANTENNA__244__B
*357 ANTENNA__244__D
*358 ANTENNA__246__A2
*359 ANTENNA__246__B1
*360 ANTENNA__246__C1
*361 ANTENNA__247__A
*362 ANTENNA__247__B
*363 ANTENNA__248__A
*364 ANTENNA__248__B
*365 ANTENNA__249__A
*366 ANTENNA__251__A
*367 ANTENNA__252__A
*368 ANTENNA__253__A
*369 ANTENNA__253__B
*370 ANTENNA__254__A1
*371 ANTENNA__254__A2
*372 ANTENNA__254__A3
*373 ANTENNA__254__B1
*374 ANTENNA__255__B1
*375 ANTENNA__255__C1
*376 ANTENNA__256__A1
*377 ANTENNA__256__A2
*378 ANTENNA__256__A3
*379 ANTENNA__256__A4
*380 ANTENNA__256__B1
*381 ANTENNA__257__A
*382 ANTENNA__257__B
*383 ANTENNA__257__C
*384 ANTENNA__257__D
*385 ANTENNA__258__A
*386 ANTENNA__258__B
*387 ANTENNA__259__A
*388 ANTENNA__260__A
*389 ANTENNA__260__C
*390 ANTENNA__262__B
*391 ANTENNA__263__B
*392 ANTENNA__264__A
*393 ANTENNA__264__B
*394 ANTENNA__264__C
*395 ANTENNA__267__C
*396 ANTENNA__267__D
*397 ANTENNA__268__A2
*398 ANTENNA__268__C1
*399 ANTENNA__269__A
*400 ANTENNA__270__A
*401 ANTENNA__271__A
*402 ANTENNA__274__B
*403 ANTENNA__275__B2
*404 ANTENNA__275__C1
*405 ANTENNA__276__A1
*406 ANTENNA__277__B
*407 ANTENNA__278__A
*408 ANTENNA__279__A
*409 ANTENNA__280__A
*410 ANTENNA__281__A
*411 ANTENNA__283__A1
*412 ANTENNA__284__A2
*413 ANTENNA__284__B1
*414 ANTENNA__285__A
*415 ANTENNA__285__B
*416 ANTENNA__286__A_N
*417 ANTENNA__286__B
*418 ANTENNA__286__C
*419 ANTENNA__287__A1
*420 ANTENNA__287__A2
*421 ANTENNA__287__D1
*422 ANTENNA__288__B
*423 ANTENNA__289__A1
*424 ANTENNA__289__A2
*425 ANTENNA__290__A
*426 ANTENNA__290__B
*427 ANTENNA__290__C
*428 ANTENNA__292__A
*429 ANTENNA__292__B
*430 ANTENNA__294__A1
*431 ANTENNA__294__A2
*432 ANTENNA__295__A
*433 ANTENNA__296__A
*434 ANTENNA__297__A
*435 ANTENNA__298__A
*436 ANTENNA__299__A
*437 ANTENNA__300__A
*438 ANTENNA__301__A
*439 ANTENNA__302__A
*440 ANTENNA__303__A
*441 ANTENNA__304__A
*442 ANTENNA__305__A
*443 ANTENNA__306__A
*444 ANTENNA__307__A
*445 ANTENNA__308__A
*446 ANTENNA__309__A
*447 ANTENNA__310__A
*448 ANTENNA__311__A
*449 ANTENNA__312__A
*450 ANTENNA__313__A
*451 ANTENNA__314__A
*452 ANTENNA__315__A
*453 ANTENNA__316__A
*454 ANTENNA__317__A
*455 ANTENNA__318__A
*456 ANTENNA__319__A
*457 ANTENNA__320__A
*458 ANTENNA__321__A
*459 ANTENNA__322__A
*460 ANTENNA__323__A
*461 ANTENNA__324__A
*462 ANTENNA__325__A
*463 ANTENNA__326__A
*464 ANTENNA__327__A
*465 ANTENNA__328__A
*466 ANTENNA__329__A
*467 ANTENNA__342__D
*468 ANTENNA__345__D
*469 ANTENNA__357__D
*470 ANTENNA__370__A
*471 ANTENNA_clkbuf_0_clk_A
*472 ANTENNA_hold1_A
*473 ANTENNA_hold2_A
*474 ANTENNA_input1_A
*475 ANTENNA_output2_A
*476 ANTENNA_output5_A
*477 FILLER_0_0_113
*478 FILLER_0_0_125
*479 FILLER_0_0_137
*480 FILLER_0_0_141
*481 FILLER_0_0_145
*482 FILLER_0_0_149
*483 FILLER_0_0_15
*484 FILLER_0_0_157
*485 FILLER_0_0_165
*486 FILLER_0_0_169
*487 FILLER_0_0_181
*488 FILLER_0_0_185
*489 FILLER_0_0_27
*490 FILLER_0_0_29
*491 FILLER_0_0_3
*492 FILLER_0_0_41
*493 FILLER_0_0_47
*494 FILLER_0_0_54
*495 FILLER_0_0_57
*496 FILLER_0_0_61
*497 FILLER_0_0_65
*498 FILLER_0_0_77
*499 FILLER_0_0_83
*500 FILLER_0_0_85
*501 FILLER_0_0_89
*502 FILLER_0_10_102
*503 FILLER_0_10_12
*504 FILLER_0_10_125
*505 FILLER_0_10_129
*506 FILLER_0_10_136
*507 FILLER_0_10_141
*508 FILLER_0_10_148
*509 FILLER_0_10_152
*510 FILLER_0_10_164
*511 FILLER_0_10_172
*512 FILLER_0_10_177
*513 FILLER_0_10_185
*514 FILLER_0_10_21
*515 FILLER_0_10_27
*516 FILLER_0_10_3
*517 FILLER_0_10_32
*518 FILLER_0_10_36
*519 FILLER_0_10_61
*520 FILLER_0_10_66
*521 FILLER_0_10_70
*522 FILLER_0_10_82
*523 FILLER_0_10_85
*524 FILLER_0_10_9
*525 FILLER_0_10_97
*526 FILLER_0_11_100
*527 FILLER_0_11_104
*528 FILLER_0_11_108
*529 FILLER_0_11_113
*530 FILLER_0_11_117
*531 FILLER_0_11_130
*532 FILLER_0_11_134
*533 FILLER_0_11_138
*534 FILLER_0_11_144
*535 FILLER_0_11_148
*536 FILLER_0_11_160
*537 FILLER_0_11_169
*538 FILLER_0_11_180
*539 FILLER_0_11_3
*540 FILLER_0_11_35
*541 FILLER_0_11_39
*542 FILLER_0_11_43
*543 FILLER_0_11_55
*544 FILLER_0_11_77
*545 FILLER_0_11_81
*546 FILLER_0_11_89
*547 FILLER_0_11_92
*548 FILLER_0_12_111
*549 FILLER_0_12_115
*550 FILLER_0_12_138
*551 FILLER_0_12_141
*552 FILLER_0_12_145
*553 FILLER_0_12_157
*554 FILLER_0_12_169
*555 FILLER_0_12_178
*556 FILLER_0_12_24
*557 FILLER_0_12_29
*558 FILLER_0_12_3
*559 FILLER_0_12_33
*560 FILLER_0_12_45
*561 FILLER_0_12_53
*562 FILLER_0_12_58
*563 FILLER_0_12_73
*564 FILLER_0_12_79
*565 FILLER_0_12_83
*566 FILLER_0_12_85
*567 FILLER_0_13_110
*568 FILLER_0_13_113
*569 FILLER_0_13_117
*570 FILLER_0_13_120
*571 FILLER_0_13_126
*572 FILLER_0_13_130
*573 FILLER_0_13_142
*574 FILLER_0_13_15
*575 FILLER_0_13_154
*576 FILLER_0_13_166
*577 FILLER_0_13_169
*578 FILLER_0_13_181
*579 FILLER_0_13_189
*580 FILLER_0_13_19
*581 FILLER_0_13_3
*582 FILLER_0_13_43
*583 FILLER_0_13_55
*584 FILLER_0_13_57
*585 FILLER_0_13_61
*586 FILLER_0_13_94
*587 FILLER_0_13_98
*588 FILLER_0_14_108
*589 FILLER_0_14_120
*590 FILLER_0_14_132
*591 FILLER_0_14_141
*592 FILLER_0_14_15
*593 FILLER_0_14_153
*594 FILLER_0_14_165
*595 FILLER_0_14_177
*596 FILLER_0_14_185
*597 FILLER_0_14_27
*598 FILLER_0_14_29
*599 FILLER_0_14_3
*600 FILLER_0_14_41
*601 FILLER_0_14_49
*602 FILLER_0_14_56
*603 FILLER_0_14_60
*604 FILLER_0_14_72
*605 FILLER_0_14_80
*606 FILLER_0_14_85
*607 FILLER_0_15_103
*608 FILLER_0_15_107
*609 FILLER_0_15_121
*610 FILLER_0_15_125
*611 FILLER_0_15_137
*612 FILLER_0_15_141
*613 FILLER_0_15_15
*614 FILLER_0_15_153
*615 FILLER_0_15_165
*616 FILLER_0_15_169
*617 FILLER_0_15_177
*618 FILLER_0_15_189
*619 FILLER_0_15_3
*620 FILLER_0_15_37
*621 FILLER_0_15_49
*622 FILLER_0_15_55
*623 FILLER_0_15_60
*624 FILLER_0_15_66
*625 FILLER_0_15_72
*626 FILLER_0_15_76
*627 FILLER_0_15_82
*628 FILLER_0_15_87
*629 FILLER_0_15_91
*630 FILLER_0_16_108
*631 FILLER_0_16_112
*632 FILLER_0_16_116
*633 FILLER_0_16_147
*634 FILLER_0_16_15
*635 FILLER_0_16_151
*636 FILLER_0_16_162
*637 FILLER_0_16_166
*638 FILLER_0_16_179
*639 FILLER_0_16_27
*640 FILLER_0_16_29
*641 FILLER_0_16_3
*642 FILLER_0_16_37
*643 FILLER_0_16_42
*644 FILLER_0_16_54
*645 FILLER_0_16_63
*646 FILLER_0_16_67
*647 FILLER_0_16_79
*648 FILLER_0_16_92
*649 FILLER_0_16_98
*650 FILLER_0_17_102
*651 FILLER_0_17_106
*652 FILLER_0_17_124
*653 FILLER_0_17_146
*654 FILLER_0_17_15
*655 FILLER_0_17_154
*656 FILLER_0_17_164
*657 FILLER_0_17_169
*658 FILLER_0_17_181
*659 FILLER_0_17_189
*660 FILLER_0_17_19
*661 FILLER_0_17_23
*662 FILLER_0_17_3
*663 FILLER_0_17_35
*664 FILLER_0_17_40
*665 FILLER_0_17_52
*666 FILLER_0_17_57
*667 FILLER_0_18_10
*668 FILLER_0_18_107
*669 FILLER_0_18_115
*670 FILLER_0_18_119
*671 FILLER_0_18_123
*672 FILLER_0_18_132
*673 FILLER_0_18_136
*674 FILLER_0_18_141
*675 FILLER_0_18_150
*676 FILLER_0_18_154
*677 FILLER_0_18_165
*678 FILLER_0_18_169
*679 FILLER_0_18_17
*680 FILLER_0_18_178
*681 FILLER_0_18_182
*682 FILLER_0_18_186
*683 FILLER_0_18_21
*684 FILLER_0_18_27
*685 FILLER_0_18_3
*686 FILLER_0_18_33
*687 FILLER_0_18_37
*688 FILLER_0_18_41
*689 FILLER_0_18_52
*690 FILLER_0_18_7
*691 FILLER_0_18_76
*692 FILLER_0_18_85
*693 FILLER_0_18_97
*694 FILLER_0_19_105
*695 FILLER_0_19_113
*696 FILLER_0_19_117
*697 FILLER_0_19_123
*698 FILLER_0_19_135
*699 FILLER_0_19_140
*700 FILLER_0_19_15
*701 FILLER_0_19_152
*702 FILLER_0_19_166
*703 FILLER_0_19_22
*704 FILLER_0_19_3
*705 FILLER_0_19_30
*706 FILLER_0_19_42
*707 FILLER_0_19_54
*708 FILLER_0_19_63
*709 FILLER_0_19_68
*710 FILLER_0_19_72
*711 FILLER_0_19_93
*712 FILLER_0_1_107
*713 FILLER_0_1_121
*714 FILLER_0_1_125
*715 FILLER_0_1_129
*716 FILLER_0_1_133
*717 FILLER_0_1_145
*718 FILLER_0_1_148
*719 FILLER_0_1_15
*720 FILLER_0_1_152
*721 FILLER_0_1_164
*722 FILLER_0_1_169
*723 FILLER_0_1_181
*724 FILLER_0_1_189
*725 FILLER_0_1_27
*726 FILLER_0_1_3
*727 FILLER_0_1_39
*728 FILLER_0_1_51
*729 FILLER_0_1_57
*730 FILLER_0_1_69
*731 FILLER_0_1_81
*732 FILLER_0_1_85
*733 FILLER_0_1_97
*734 FILLER_0_20_104
*735 FILLER_0_20_116
*736 FILLER_0_20_128
*737 FILLER_0_20_132
*738 FILLER_0_20_136
*739 FILLER_0_20_141
*740 FILLER_0_20_15
*741 FILLER_0_20_153
*742 FILLER_0_20_177
*743 FILLER_0_20_181
*744 FILLER_0_20_185
*745 FILLER_0_20_27
*746 FILLER_0_20_29
*747 FILLER_0_20_3
*748 FILLER_0_20_33
*749 FILLER_0_20_59
*750 FILLER_0_20_64
*751 FILLER_0_20_70
*752 FILLER_0_20_74
*753 FILLER_0_20_78
*754 FILLER_0_20_82
*755 FILLER_0_20_85
*756 FILLER_0_20_97
*757 FILLER_0_21_100
*758 FILLER_0_21_104
*759 FILLER_0_21_118
*760 FILLER_0_21_122
*761 FILLER_0_21_135
*762 FILLER_0_21_164
*763 FILLER_0_21_169
*764 FILLER_0_21_17
*765 FILLER_0_21_175
*766 FILLER_0_21_179
*767 FILLER_0_21_189
*768 FILLER_0_21_23
*769 FILLER_0_21_3
*770 FILLER_0_21_53
*771 FILLER_0_21_65
*772 FILLER_0_21_69
*773 FILLER_0_21_73
*774 FILLER_0_21_77
*775 FILLER_0_21_81
*776 FILLER_0_21_93
*777 FILLER_0_22_108
*778 FILLER_0_22_120
*779 FILLER_0_22_127
*780 FILLER_0_22_13
*781 FILLER_0_22_139
*782 FILLER_0_22_141
*783 FILLER_0_22_153
*784 FILLER_0_22_158
*785 FILLER_0_22_183
*786 FILLER_0_22_23
*787 FILLER_0_22_27
*788 FILLER_0_22_29
*789 FILLER_0_22_3
*790 FILLER_0_22_34
*791 FILLER_0_22_38
*792 FILLER_0_22_42
*793 FILLER_0_22_50
*794 FILLER_0_22_55
*795 FILLER_0_22_7
*796 FILLER_0_22_80
*797 FILLER_0_22_85
*798 FILLER_0_22_93
*799 FILLER_0_22_96
*800 FILLER_0_23_111
*801 FILLER_0_23_113
*802 FILLER_0_23_117
*803 FILLER_0_23_129
*804 FILLER_0_23_135
*805 FILLER_0_23_143
*806 FILLER_0_23_148
*807 FILLER_0_23_15
*808 FILLER_0_23_161
*809 FILLER_0_23_167
*810 FILLER_0_23_169
*811 FILLER_0_23_181
*812 FILLER_0_23_189
*813 FILLER_0_23_27
*814 FILLER_0_23_3
*815 FILLER_0_23_39
*816 FILLER_0_23_45
*817 FILLER_0_23_53
*818 FILLER_0_23_57
*819 FILLER_0_23_61
*820 FILLER_0_23_7
*821 FILLER_0_23_73
*822 FILLER_0_23_85
*823 FILLER_0_23_94
*824 FILLER_0_23_99
*825 FILLER_0_24_106
*826 FILLER_0_24_118
*827 FILLER_0_24_122
*828 FILLER_0_24_134
*829 FILLER_0_24_139
*830 FILLER_0_24_148
*831 FILLER_0_24_152
*832 FILLER_0_24_155
*833 FILLER_0_24_167
*834 FILLER_0_24_179
*835 FILLER_0_24_29
*836 FILLER_0_24_33
*837 FILLER_0_24_53
*838 FILLER_0_24_57
*839 FILLER_0_24_61
*840 FILLER_0_24_67
*841 FILLER_0_24_7
*842 FILLER_0_24_76
*843 FILLER_0_24_85
*844 FILLER_0_24_99
*845 FILLER_0_25_105
*846 FILLER_0_25_111
*847 FILLER_0_25_133
*848 FILLER_0_25_141
*849 FILLER_0_25_147
*850 FILLER_0_25_15
*851 FILLER_0_25_160
*852 FILLER_0_25_169
*853 FILLER_0_25_181
*854 FILLER_0_25_189
*855 FILLER_0_25_19
*856 FILLER_0_25_22
*857 FILLER_0_25_3
*858 FILLER_0_25_30
*859 FILLER_0_25_57
*860 FILLER_0_25_69
*861 FILLER_0_25_81
*862 FILLER_0_25_93
*863 FILLER_0_26_109
*864 FILLER_0_26_125
*865 FILLER_0_26_129
*866 FILLER_0_26_135
*867 FILLER_0_26_139
*868 FILLER_0_26_141
*869 FILLER_0_26_147
*870 FILLER_0_26_151
*871 FILLER_0_26_155
*872 FILLER_0_26_167
*873 FILLER_0_26_179
*874 FILLER_0_26_18
*875 FILLER_0_26_25
*876 FILLER_0_26_29
*877 FILLER_0_26_3
*878 FILLER_0_26_37
*879 FILLER_0_26_43
*880 FILLER_0_26_47
*881 FILLER_0_26_54
*882 FILLER_0_26_58
*883 FILLER_0_26_67
*884 FILLER_0_26_79
*885 FILLER_0_26_83
*886 FILLER_0_26_85
*887 FILLER_0_26_97
*888 FILLER_0_27_109
*889 FILLER_0_27_113
*890 FILLER_0_27_138
*891 FILLER_0_27_141
*892 FILLER_0_27_149
*893 FILLER_0_27_15
*894 FILLER_0_27_153
*895 FILLER_0_27_159
*896 FILLER_0_27_163
*897 FILLER_0_27_167
*898 FILLER_0_27_169
*899 FILLER_0_27_181
*900 FILLER_0_27_20
*901 FILLER_0_27_29
*902 FILLER_0_27_3
*903 FILLER_0_27_33
*904 FILLER_0_27_39
*905 FILLER_0_27_43
*906 FILLER_0_27_47
*907 FILLER_0_27_55
*908 FILLER_0_27_57
*909 FILLER_0_27_65
*910 FILLER_0_27_77
*911 FILLER_0_27_81
*912 FILLER_0_27_85
*913 FILLER_0_27_97
*914 FILLER_0_2_11
*915 FILLER_0_2_123
*916 FILLER_0_2_127
*917 FILLER_0_2_131
*918 FILLER_0_2_139
*919 FILLER_0_2_141
*920 FILLER_0_2_153
*921 FILLER_0_2_165
*922 FILLER_0_2_177
*923 FILLER_0_2_184
*924 FILLER_0_2_19
*925 FILLER_0_2_25
*926 FILLER_0_2_29
*927 FILLER_0_2_3
*928 FILLER_0_2_41
*929 FILLER_0_2_53
*930 FILLER_0_2_90
*931 FILLER_0_3_118
*932 FILLER_0_3_122
*933 FILLER_0_3_126
*934 FILLER_0_3_134
*935 FILLER_0_3_138
*936 FILLER_0_3_15
*937 FILLER_0_3_150
*938 FILLER_0_3_162
*939 FILLER_0_3_169
*940 FILLER_0_3_177
*941 FILLER_0_3_180
*942 FILLER_0_3_19
*943 FILLER_0_3_3
*944 FILLER_0_3_54
*945 FILLER_0_3_60
*946 FILLER_0_3_66
*947 FILLER_0_3_69
*948 FILLER_0_3_77
*949 FILLER_0_3_85
*950 FILLER_0_4_106
*951 FILLER_0_4_111
*952 FILLER_0_4_119
*953 FILLER_0_4_122
*954 FILLER_0_4_129
*955 FILLER_0_4_133
*956 FILLER_0_4_139
*957 FILLER_0_4_141
*958 FILLER_0_4_145
*959 FILLER_0_4_148
*960 FILLER_0_4_15
*961 FILLER_0_4_155
*962 FILLER_0_4_159
*963 FILLER_0_4_165
*964 FILLER_0_4_169
*965 FILLER_0_4_178
*966 FILLER_0_4_182
*967 FILLER_0_4_27
*968 FILLER_0_4_3
*969 FILLER_0_4_32
*970 FILLER_0_4_36
*971 FILLER_0_4_48
*972 FILLER_0_4_60
*973 FILLER_0_4_67
*974 FILLER_0_4_71
*975 FILLER_0_4_75
*976 FILLER_0_4_78
*977 FILLER_0_5_102
*978 FILLER_0_5_106
*979 FILLER_0_5_113
*980 FILLER_0_5_125
*981 FILLER_0_5_133
*982 FILLER_0_5_137
*983 FILLER_0_5_141
*984 FILLER_0_5_153
*985 FILLER_0_5_161
*986 FILLER_0_5_165
*987 FILLER_0_5_177
*988 FILLER_0_5_183
*989 FILLER_0_5_187
*990 FILLER_0_5_19
*991 FILLER_0_5_23
*992 FILLER_0_5_3
*993 FILLER_0_5_35
*994 FILLER_0_5_47
*995 FILLER_0_5_55
*996 FILLER_0_5_57
*997 FILLER_0_5_65
*998 FILLER_0_5_74
*999 FILLER_0_5_9
*1000 FILLER_0_6_102
*1001 FILLER_0_6_108
*1002 FILLER_0_6_112
*1003 FILLER_0_6_124
*1004 FILLER_0_6_129
*1005 FILLER_0_6_141
*1006 FILLER_0_6_151
*1007 FILLER_0_6_155
*1008 FILLER_0_6_159
*1009 FILLER_0_6_167
*1010 FILLER_0_6_171
*1011 FILLER_0_6_175
*1012 FILLER_0_6_179
*1013 FILLER_0_6_183
*1014 FILLER_0_6_19
*1015 FILLER_0_6_23
*1016 FILLER_0_6_27
*1017 FILLER_0_6_29
*1018 FILLER_0_6_3
*1019 FILLER_0_6_44
*1020 FILLER_0_6_48
*1021 FILLER_0_6_52
*1022 FILLER_0_6_64
*1023 FILLER_0_6_72
*1024 FILLER_0_6_76
*1025 FILLER_0_6_85
*1026 FILLER_0_6_93
*1027 FILLER_0_6_98
*1028 FILLER_0_7_101
*1029 FILLER_0_7_109
*1030 FILLER_0_7_113
*1031 FILLER_0_7_120
*1032 FILLER_0_7_124
*1033 FILLER_0_7_128
*1034 FILLER_0_7_133
*1035 FILLER_0_7_15
*1036 FILLER_0_7_161
*1037 FILLER_0_7_165
*1038 FILLER_0_7_169
*1039 FILLER_0_7_188
*1040 FILLER_0_7_27
*1041 FILLER_0_7_3
*1042 FILLER_0_7_42
*1043 FILLER_0_7_46
*1044 FILLER_0_7_53
*1045 FILLER_0_7_57
*1046 FILLER_0_7_69
*1047 FILLER_0_7_81
*1048 FILLER_0_7_93
*1049 FILLER_0_7_97
*1050 FILLER_0_8_107
*1051 FILLER_0_8_132
*1052 FILLER_0_8_136
*1053 FILLER_0_8_141
*1054 FILLER_0_8_145
*1055 FILLER_0_8_15
*1056 FILLER_0_8_158
*1057 FILLER_0_8_162
*1058 FILLER_0_8_170
*1059 FILLER_0_8_175
*1060 FILLER_0_8_179
*1061 FILLER_0_8_185
*1062 FILLER_0_8_23
*1063 FILLER_0_8_27
*1064 FILLER_0_8_29
*1065 FILLER_0_8_3
*1066 FILLER_0_8_54
*1067 FILLER_0_8_61
*1068 FILLER_0_8_69
*1069 FILLER_0_8_81
*1070 FILLER_0_8_85
*1071 FILLER_0_8_95
*1072 FILLER_0_8_99
*1073 FILLER_0_9_104
*1074 FILLER_0_9_11
*1075 FILLER_0_9_111
*1076 FILLER_0_9_133
*1077 FILLER_0_9_137
*1078 FILLER_0_9_141
*1079 FILLER_0_9_144
*1080 FILLER_0_9_148
*1081 FILLER_0_9_152
*1082 FILLER_0_9_164
*1083 FILLER_0_9_172
*1084 FILLER_0_9_176
*1085 FILLER_0_9_184
*1086 FILLER_0_9_3
*1087 FILLER_0_9_34
*1088 FILLER_0_9_57
*1089 FILLER_0_9_69
*1090 FILLER_0_9_75
*1091 FILLER_0_9_79
*1092 FILLER_0_9_91
*1093 PHY_EDGE_ROW_0_Left_28
*1094 PHY_EDGE_ROW_0_Right_0
*1095 PHY_EDGE_ROW_10_Left_38
*1096 PHY_EDGE_ROW_10_Right_10
*1097 PHY_EDGE_ROW_11_Left_39
*1098 PHY_EDGE_ROW_11_Right_11
*1099 PHY_EDGE_ROW_12_Left_40
*1100 PHY_EDGE_ROW_12_Right_12
*1101 PHY_EDGE_ROW_13_Left_41
*1102 PHY_EDGE_ROW_13_Right_13
*1103 PHY_EDGE_ROW_14_Left_42
*1104 PHY_EDGE_ROW_14_Right_14
*1105 PHY_EDGE_ROW_15_Left_43
*1106 PHY_EDGE_ROW_15_Right_15
*1107 PHY_EDGE_ROW_16_Left_44
*1108 PHY_EDGE_ROW_16_Right_16
*1109 PHY_EDGE_ROW_17_Left_45
*1110 PHY_EDGE_ROW_17_Right_17
*1111 PHY_EDGE_ROW_18_Left_46
*1112 PHY_EDGE_ROW_18_Right_18
*1113 PHY_EDGE_ROW_19_Left_47
*1114 PHY_EDGE_ROW_19_Right_19
*1115 PHY_EDGE_ROW_1_Left_29
*1116 PHY_EDGE_ROW_1_Right_1
*1117 PHY_EDGE_ROW_20_Left_48
*1118 PHY_EDGE_ROW_20_Right_20
*1119 PHY_EDGE_ROW_21_Left_49
*1120 PHY_EDGE_ROW_21_Right_21
*1121 PHY_EDGE_ROW_22_Left_50
*1122 PHY_EDGE_ROW_22_Right_22
*1123 PHY_EDGE_ROW_23_Left_51
*1124 PHY_EDGE_ROW_23_Right_23
*1125 PHY_EDGE_ROW_24_Left_52
*1126 PHY_EDGE_ROW_24_Right_24
*1127 PHY_EDGE_ROW_25_Left_53
*1128 PHY_EDGE_ROW_25_Right_25
*1129 PHY_EDGE_ROW_26_Left_54
*1130 PHY_EDGE_ROW_26_Right_26
*1131 PHY_EDGE_ROW_27_Left_55
*1132 PHY_EDGE_ROW_27_Right_27
*1133 PHY_EDGE_ROW_2_Left_30
*1134 PHY_EDGE_ROW_2_Right_2
*1135 PHY_EDGE_ROW_3_Left_31
*1136 PHY_EDGE_ROW_3_Right_3
*1137 PHY_EDGE_ROW_4_Left_32
*1138 PHY_EDGE_ROW_4_Right_4
*1139 PHY_EDGE_ROW_5_Left_33
*1140 PHY_EDGE_ROW_5_Right_5
*1141 PHY_EDGE_ROW_6_Left_34
*1142 PHY_EDGE_ROW_6_Right_6
*1143 PHY_EDGE_ROW_7_Left_35
*1144 PHY_EDGE_ROW_7_Right_7
*1145 PHY_EDGE_ROW_8_Left_36
*1146 PHY_EDGE_ROW_8_Right_8
*1147 PHY_EDGE_ROW_9_Left_37
*1148 PHY_EDGE_ROW_9_Right_9
*1149 TAP_TAPCELL_ROW_0_56
*1150 TAP_TAPCELL_ROW_0_57
*1151 TAP_TAPCELL_ROW_0_58
*1152 TAP_TAPCELL_ROW_0_59
*1153 TAP_TAPCELL_ROW_0_60
*1154 TAP_TAPCELL_ROW_0_61
*1155 TAP_TAPCELL_ROW_10_89
*1156 TAP_TAPCELL_ROW_10_90
*1157 TAP_TAPCELL_ROW_10_91
*1158 TAP_TAPCELL_ROW_11_92
*1159 TAP_TAPCELL_ROW_11_93
*1160 TAP_TAPCELL_ROW_11_94
*1161 TAP_TAPCELL_ROW_12_95
*1162 TAP_TAPCELL_ROW_12_96
*1163 TAP_TAPCELL_ROW_12_97
*1164 TAP_TAPCELL_ROW_13_100
*1165 TAP_TAPCELL_ROW_13_98
*1166 TAP_TAPCELL_ROW_13_99
*1167 TAP_TAPCELL_ROW_14_101
*1168 TAP_TAPCELL_ROW_14_102
*1169 TAP_TAPCELL_ROW_14_103
*1170 TAP_TAPCELL_ROW_15_104
*1171 TAP_TAPCELL_ROW_15_105
*1172 TAP_TAPCELL_ROW_15_106
*1173 TAP_TAPCELL_ROW_16_107
*1174 TAP_TAPCELL_ROW_16_108
*1175 TAP_TAPCELL_ROW_16_109
*1176 TAP_TAPCELL_ROW_17_110
*1177 TAP_TAPCELL_ROW_17_111
*1178 TAP_TAPCELL_ROW_17_112
*1179 TAP_TAPCELL_ROW_18_113
*1180 TAP_TAPCELL_ROW_18_114
*1181 TAP_TAPCELL_ROW_18_115
*1182 TAP_TAPCELL_ROW_19_116
*1183 TAP_TAPCELL_ROW_19_117
*1184 TAP_TAPCELL_ROW_19_118
*1185 TAP_TAPCELL_ROW_1_62
*1186 TAP_TAPCELL_ROW_1_63
*1187 TAP_TAPCELL_ROW_1_64
*1188 TAP_TAPCELL_ROW_20_119
*1189 TAP_TAPCELL_ROW_20_120
*1190 TAP_TAPCELL_ROW_20_121
*1191 TAP_TAPCELL_ROW_21_122
*1192 TAP_TAPCELL_ROW_21_123
*1193 TAP_TAPCELL_ROW_21_124
*1194 TAP_TAPCELL_ROW_22_125
*1195 TAP_TAPCELL_ROW_22_126
*1196 TAP_TAPCELL_ROW_22_127
*1197 TAP_TAPCELL_ROW_23_128
*1198 TAP_TAPCELL_ROW_23_129
*1199 TAP_TAPCELL_ROW_23_130
*1200 TAP_TAPCELL_ROW_24_131
*1201 TAP_TAPCELL_ROW_24_132
*1202 TAP_TAPCELL_ROW_24_133
*1203 TAP_TAPCELL_ROW_25_134
*1204 TAP_TAPCELL_ROW_25_135
*1205 TAP_TAPCELL_ROW_25_136
*1206 TAP_TAPCELL_ROW_26_137
*1207 TAP_TAPCELL_ROW_26_138
*1208 TAP_TAPCELL_ROW_26_139
*1209 TAP_TAPCELL_ROW_27_140
*1210 TAP_TAPCELL_ROW_27_141
*1211 TAP_TAPCELL_ROW_27_142
*1212 TAP_TAPCELL_ROW_27_143
*1213 TAP_TAPCELL_ROW_27_144
*1214 TAP_TAPCELL_ROW_27_145
*1215 TAP_TAPCELL_ROW_2_65
*1216 TAP_TAPCELL_ROW_2_66
*1217 TAP_TAPCELL_ROW_2_67
*1218 TAP_TAPCELL_ROW_3_68
*1219 TAP_TAPCELL_ROW_3_69
*1220 TAP_TAPCELL_ROW_3_70
*1221 TAP_TAPCELL_ROW_4_71
*1222 TAP_TAPCELL_ROW_4_72
*1223 TAP_TAPCELL_ROW_4_73
*1224 TAP_TAPCELL_ROW_5_74
*1225 TAP_TAPCELL_ROW_5_75
*1226 TAP_TAPCELL_ROW_5_76
*1227 TAP_TAPCELL_ROW_6_77
*1228 TAP_TAPCELL_ROW_6_78
*1229 TAP_TAPCELL_ROW_6_79
*1230 TAP_TAPCELL_ROW_7_80
*1231 TAP_TAPCELL_ROW_7_81
*1232 TAP_TAPCELL_ROW_7_82
*1233 TAP_TAPCELL_ROW_8_83
*1234 TAP_TAPCELL_ROW_8_84
*1235 TAP_TAPCELL_ROW_8_85
*1236 TAP_TAPCELL_ROW_9_86
*1237 TAP_TAPCELL_ROW_9_87
*1238 TAP_TAPCELL_ROW_9_88
*1239 ZeroToFiveCounter_10
*1240 ZeroToFiveCounter_11
*1241 ZeroToFiveCounter_12
*1242 ZeroToFiveCounter_13
*1243 ZeroToFiveCounter_14
*1244 ZeroToFiveCounter_15
*1245 ZeroToFiveCounter_16
*1246 ZeroToFiveCounter_9
*1247 _162_
*1248 _163_
*1249 _164_
*1250 _165_
*1251 _166_
*1252 _167_
*1253 _168_
*1254 _169_
*1255 _170_
*1256 _171_
*1257 _172_
*1258 _173_
*1259 _174_
*1260 _175_
*1261 _176_
*1262 _177_
*1263 _178_
*1264 _179_
*1265 _180_
*1266 _181_
*1267 _182_
*1268 _183_
*1269 _184_
*1270 _185_
*1271 _186_
*1272 _187_
*1273 _188_
*1274 _189_
*1275 _190_
*1276 _191_
*1277 _192_
*1278 _193_
*1279 _194_
*1280 _195_
*1281 _196_
*1282 _197_
*1283 _198_
*1284 _199_
*1285 _200_
*1286 _201_
*1287 _202_
*1288 _203_
*1289 _204_
*1290 _205_
*1291 _206_
*1292 _207_
*1293 _208_
*1294 _209_
*1295 _210_
*1296 _211_
*1297 _212_
*1298 _213_
*1299 _214_
*1300 _215_
*1301 _216_
*1302 _217_
*1303 _218_
*1304 _219_
*1305 _220_
*1306 _221_
*1307 _222_
*1308 _223_
*1309 _224_
*1310 _225_
*1311 _226_
*1312 _227_
*1313 _228_
*1314 _229_
*1315 _230_
*1316 _231_
*1317 _232_
*1318 _233_
*1319 _234_
*1320 _235_
*1321 _236_
*1322 _237_
*1323 _238_
*1324 _239_
*1325 _240_
*1326 _241_
*1327 _242_
*1328 _243_
*1329 _244_
*1330 _245_
*1331 _246_
*1332 _247_
*1333 _248_
*1334 _249_
*1335 _250_
*1336 _251_
*1337 _252_
*1338 _253_
*1339 _254_
*1340 _255_
*1341 _256_
*1342 _257_
*1343 _258_
*1344 _259_
*1345 _260_
*1346 _261_
*1347 _262_
*1348 _263_
*1349 _264_
*1350 _265_
*1351 _266_
*1352 _267_
*1353 _268_
*1354 _269_
*1355 _270_
*1356 _271_
*1357 _272_
*1358 _273_
*1359 _274_
*1360 _275_
*1361 _276_
*1362 _277_
*1363 _278_
*1364 _279_
*1365 _280_
*1366 _281_
*1367 _282_
*1368 _283_
*1369 _284_
*1370 _285_
*1371 _286_
*1372 _287_
*1373 _288_
*1374 _289_
*1375 _290_
*1376 _291_
*1377 _292_
*1378 _293_
*1379 _294_
*1380 _295_
*1381 _296_
*1382 _297_
*1383 _298_
*1384 _299_
*1385 _300_
*1386 _301_
*1387 _302_
*1388 _303_
*1389 _304_
*1390 _305_
*1391 _306_
*1392 _307_
*1393 _308_
*1394 _309_
*1395 _310_
*1396 _311_
*1397 _312_
*1398 _313_
*1399 _314_
*1400 _315_
*1401 _316_
*1402 _317_
*1403 _318_
*1404 _319_
*1405 _320_
*1406 _321_
*1407 _322_
*1408 _323_
*1409 _324_
*1410 _325_
*1411 _326_
*1412 _327_
*1413 _328_
*1414 _329_
*1415 _330_
*1416 _331_
*1417 _332_
*1418 _333_
*1419 _334_
*1420 _335_
*1421 _336_
*1422 _337_
*1423 _338_
*1424 _339_
*1425 _340_
*1426 _341_
*1427 _342_
*1428 _343_
*1429 _344_
*1430 _345_
*1431 _346_
*1432 _347_
*1433 _348_
*1434 _349_
*1435 _350_
*1436 _351_
*1437 _352_
*1438 _353_
*1439 _354_
*1440 _355_
*1441 _356_
*1442 _357_
*1443 _358_
*1444 _359_
*1445 _360_
*1446 _361_
*1447 _370_
*1448 clkbuf_0_clk
*1449 clkbuf_2_0__f_clk
*1450 clkbuf_2_1__f_clk
*1451 clkbuf_2_2__f_clk
*1452 clkbuf_2_3__f_clk
*1453 clkload0
*1454 clkload1
*1455 clkload2
*1456 hold1
*1457 hold2
*1458 input1
*1459 output2
*1460 output3
*1461 output4
*1462 output5
*1463 output6
*1464 output7
*1465 output8

*PORTS
an[0] O
an[1] O
an[2] O
an[3] O
an[4] O
an[5] O
an[6] O
an[7] O
clk I
rst I
seg[0] O
seg[1] O
seg[2] O
seg[3] O
seg[4] O
seg[5] O
seg[6] O

*D_NET *3 0.000584209
*CONN
*P an[0] O
*I *1239:HI O *D sky130_fd_sc_hd__conb_1
*CAP
1 an[0] 0.000292105
2 *1239:HI 0.000292105
3 an[0] an[1] 0
*RES
1 *1239:HI an[0] 18.8021 
*END

*D_NET *4 0.000499916
*CONN
*P an[1] O
*I *1240:HI O *D sky130_fd_sc_hd__conb_1
*CAP
1 an[1] 0.000249958
2 *1240:HI 0.000249958
3 an[1] an[2] 0
4 an[0] an[1] 0
*RES
1 *1240:HI an[1] 18.1949 
*END

*D_NET *5 0.000525463
*CONN
*P an[2] O
*I *1241:HI O *D sky130_fd_sc_hd__conb_1
*CAP
1 an[2] 0.000262731
2 *1241:HI 0.000262731
3 an[2] an[3] 0
4 an[1] an[2] 0
*RES
1 *1241:HI an[2] 18.1949 
*END

*D_NET *6 0.000747888
*CONN
*P an[3] O
*I *1242:HI O *D sky130_fd_sc_hd__conb_1
*CAP
1 an[3] 0.000373944
2 *1242:HI 0.000373944
3 an[3] an[4] 0
4 an[2] an[3] 0
*RES
1 *1242:HI an[3] 18.4111 
*END

*D_NET *7 0.000558872
*CONN
*P an[4] O
*I *1243:HI O *D sky130_fd_sc_hd__conb_1
*CAP
1 an[4] 0.000239828
2 *1243:HI 0.000239828
3 an[4] an[5] 0
4 an[4] *199:14 5.85994e-05
5 an[4] *200:10 2.06178e-05
6 an[3] an[4] 0
*RES
1 *1243:HI an[4] 18.1949 
*END

*D_NET *8 0.000546983
*CONN
*P an[5] O
*I *1244:HI O *D sky130_fd_sc_hd__conb_1
*CAP
1 an[5] 0.000246116
2 *1244:HI 0.000246116
3 an[5] an[6] 0
4 an[5] *196:24 8.50795e-06
5 an[5] *199:14 2.56257e-05
6 an[5] *200:10 2.06178e-05
7 an[4] an[5] 0
*RES
1 *1244:HI an[5] 18.1949 
*END

*D_NET *9 0.000602511
*CONN
*P an[6] O
*I *1245:HI O *D sky130_fd_sc_hd__conb_1
*CAP
1 an[6] 0.000265599
2 *1245:HI 0.000265599
3 an[6] an[7] 0
4 an[6] *23:10 2.62984e-05
5 an[6] *200:10 4.50149e-05
6 an[5] an[6] 0
*RES
1 *1245:HI an[6] 18.4985 
*END

*D_NET *10 0.000698179
*CONN
*P an[7] O
*I *1246:LO O *D sky130_fd_sc_hd__conb_1
*CAP