*SPEF "ieee 1481-1999"
*DESIGN "project1"
*DATE "17:37:58 Monday April 21, 2025"
*VENDOR "The OpenROAD Project"
*PROGRAM "OpenROAD"
*VERSION "b16bda7e82721d10566ff7e2b68f1ff0be9f9e38"
*DESIGN_FLOW "NAME_SCOPE LOCAL" "PIN_CAP NONE"
*DIVIDER /
*DELIMITER :
*BUS_DELIMITER []
*T_UNIT 1 NS
*C_UNIT 1 PF
*R_UNIT 1 OHM
*L_UNIT 1 HENRY

*NAME_MAP
*3 in[0]
*4 in[1]
*5 in[2]
*6 in[3]
*7 in[4]
*8 in[5]
*9 in[6]
*10 in[7]
*11 out[0]
*12 out[1]
*13 out[2]
*14 out[3]
*15 out[4]
*16 out[5]
*17 out[6]
*18 out[7]
*19 _00_
*20 _01_
*21 _02_
*22 _03_
*23 _04_
*24 _05_
*25 _06_
*26 _07_
*27 _08_
*28 _09_
*29 net1
*30 net10
*31 net11
*32 net12
*33 net13
*34 net14
*35 net15
*36 net16
*37 net2
*38 net3
*39 net4
*40 net5
*41 net6
*42 net7
*43 net8
*44 net9
*45 FILLER_0_0_21
*46 FILLER_0_0_27
*47 FILLER_0_0_29
*48 FILLER_0_0_37
*49 FILLER_0_0_9
*50 FILLER_0_10_18
*51 FILLER_0_10_26
*52 FILLER_0_10_29
*53 FILLER_0_10_41
*54 FILLER_0_10_6
*55 FILLER_0_11_15
*56 FILLER_0_11_27
*57 FILLER_0_11_3
*58 FILLER_0_11_35
*59 FILLER_0_11_42
*60 FILLER_0_12_21
*61 FILLER_0_12_27
*62 FILLER_0_12_29
*63 FILLER_0_12_33
*64 FILLER_0_12_41
*65 FILLER_0_12_9
*66 FILLER_0_1_15
*67 FILLER_0_1_21
*68 FILLER_0_1_3
*69 FILLER_0_1_33
*70 FILLER_0_1_45
*71 FILLER_0_2_15
*72 FILLER_0_2_27
*73 FILLER_0_2_29
*74 FILLER_0_2_3
*75 FILLER_0_2_41
*76 FILLER_0_2_47
*77 FILLER_0_3_18
*78 FILLER_0_3_30
*79 FILLER_0_3_42
*80 FILLER_0_3_6
*81 FILLER_0_4_15
*82 FILLER_0_4_23
*83 FILLER_0_4_27
*84 FILLER_0_4_3
*85 FILLER_0_4_35
*86 FILLER_0_4_47
*87 FILLER_0_5_16
*88 FILLER_0_5_31
*89 FILLER_0_5_37
*90 FILLER_0_5_43
*91 FILLER_0_5_9
*92 FILLER_0_6_11
*93 FILLER_0_6_23
*94 FILLER_0_6_27
*95 FILLER_0_6_29
*96 FILLER_0_6_3
*97 FILLER_0_6_41
*98 FILLER_0_6_47
*99 FILLER_0_7_13
*100 FILLER_0_7_25
*101 FILLER_0_7_3
*102 FILLER_0_7_36
*103 FILLER_0_7_9
*104 FILLER_0_8_18
*105 FILLER_0_8_26
*106 FILLER_0_8_36
*107 FILLER_0_8_6
*108 FILLER_0_9_15
*109 FILLER_0_9_26
*110 FILLER_0_9_3
*111 FILLER_0_9_34
*112 FILLER_0_9_46
*113 PHY_EDGE_ROW_0_Left_13
*114 PHY_EDGE_ROW_0_Right_0
*115 PHY_EDGE_ROW_10_Left_23
*116 PHY_EDGE_ROW_10_Right_10
*117 PHY_EDGE_ROW_11_Left_24
*118 PHY_EDGE_ROW_11_Right_11
*119 PHY_EDGE_ROW_12_Left_25
*120 PHY_EDGE_ROW_12_Right_12
*121 PHY_EDGE_ROW_1_Left_14
*122 PHY_EDGE_ROW_1_Right_1
*123 PHY_EDGE_ROW_2_Left_15
*124 PHY_EDGE_ROW_2_Right_2
*125 PHY_EDGE_ROW_3_Left_16
*126 PHY_EDGE_ROW_3_Right_3
*127 PHY_EDGE_ROW_4_Left_17
*128 PHY_EDGE_ROW_4_Right_4
*129 PHY_EDGE_ROW_5_Left_18
*130 PHY_EDGE_ROW_5_Right_5
*131 PHY_EDGE_ROW_6_Left_19
*132 PHY_EDGE_ROW_6_Right_6
*133 PHY_EDGE_ROW_7_Left_20
*134 PHY_EDGE_ROW_7_Right_7
*135 PHY_EDGE_ROW_8_Left_21
*136 PHY_EDGE_ROW_8_Right_8
*137 PHY_EDGE_ROW_9_Left_22
*138 PHY_EDGE_ROW_9_Right_9
*139 TAP_TAPCELL_ROW_0_26
*140 TAP_TAPCELL_ROW_10_31
*141 TAP_TAPCELL_ROW_12_32
*142 TAP_TAPCELL_ROW_2_27
*143 TAP_TAPCELL_ROW_4_28
*144 TAP_TAPCELL_ROW_6_29
*145 TAP_TAPCELL_ROW_8_30
*146 _10_
*147 _11_
*148 _12_
*149 _13_
*150 _14_
*151 _15_
*152 _16_
*153 _17_
*154 _18_
*155 _19_
*156 _20_
*157 _21_
*158 _22_
*159 _23_
*160 _24_
*161 _25_
*162 _26_
*163 _27_
*164 input1
*165 input2
*166 input3
*167 input4
*168 input5
*169 input6
*170 input7
*171 input8
*172 output10
*173 output11
*174 output12
*175 output13
*176 output14
*177 output15
*178 output16
*179 output9

*PORTS
in[0] I
in[1] I
in[2] I
in[3] I
in[4] I
in[5] I
in[6] I
in[7] I
out[0] O
out[1] O
out[2] O
out[3] O
out[4] O
out[5] O
out[6] O
out[7] O

*D_NET *3 0.00101438
*CONN
*P in[0] I
*I *164:A I *D sky130_fd_sc_hd__buf_1
*CAP
1 in[0] 0.000507191
2 *164:A 0.000507191
3 *164:A *165:A 0
*RES
1 in[0] *164:A 10.2018 
*END

*D_NET *4 0.000747554
*CONN
*P in[1] I
*I *165:A I *D sky130_fd_sc_hd__buf_1
*CAP
1 in[1] 0.000363223
2 *165:A 0.000363223
3 *165:A *166:A 0
4 *165:A *29:10 2.11084e-05
5 *164:A *165:A 0
*RES
1 in[1] *165:A 8.2293 
*END

*D_NET *5 0.000531065
*CONN
*P in[2] I
*I *166:A I *D sky130_fd_sc_hd__buf_1
*CAP
1 in[2] 0.000265532
2 *166:A 0.000265532
3 *166:A *167:A 0
4 *165:A *166:A 0
*RES
1 in[2] *166:A 6.8343 
*END

*D_NET *6 0.000645774
*CONN
*P in[3] I
*I *167:A I *D sky130_fd_sc_hd__clkbuf_1
*CAP
1 in[3] 0.000322887
2 *167:A 0.000322887
3 *167:A *148:A3 0
4 *167:A *148:B1 0
5 *167:A *168:A 0
6 *166:A *167:A 0
*RES
1 in[3] *167:A 7.8543 
*END

*D_NET *7 0.000753053
*CONN
*P in[4] I
*I *168:A I *D sky130_fd_sc_hd__buf_1
*CAP
1 in[4] 0.000315576
2 *168:A 0.000315576
3 *168:A *154:A 3.23663e-05
4 *168:A *154:B 3.95724e-05
5 *168:A *169:A 0
6 *168:A *175:A 4.99619e-05
7 *167:A *168:A 0
*RES
1 in[4] *168:A 8.2293 
*END

*D_NET *8 0.000666425
*CONN
*P in[5] I
*I *169:A I *D sky130_fd_sc_hd__buf_1
*CAP
1 in[5] 0.000333212
2 *169:A 0.000333212
3 *169:A *170:A 0
4 *168:A *169:A 0
*RES
1 in[5] *169:A 8.1093 
*END

*D_NET *9 0.000523624
*CONN
*P in[6] I
*I *170:A I *D sky130_fd_sc_hd__clkbuf_1
*CAP
1 in[6] 0.000261812
2 *170:A 0.000261812
3 *170:A *171:A 0
4 *169:A *170:A 0
*RES
1 in[6] *170:A 6.8343 
*END

*D_NET *10 0.00115517
*CONN
*P in[7] I
*I *171:A I *D sky130_fd_sc_hd__buf_1
*CAP
1 in[7] 0.000577586
2 *171:A 0.000577586
3 *170:A *171:A 0
*RES
1 in[7] *171:A 10.6316 
*END

*D_NET *11 0.00125215
*CONN
*P out[0] O
*I *179:X O *D sky130_fd_sc_hd__buf_2
*CAP
1 out[0] 0.000603081
2 *179:X 0.000603081
3 out[0] out[1] 1.92979e-05
4 out[0] *172:A 0
5 out[0] *176:A 2.66935e-05
*RES
1 *179:X out[0] 11.8685 
*END

*D_NET *12 0.000429804
*CONN
*P out[1] O
*I *172:X O *D sky130_fd_sc_hd__buf_2
*CAP
1 out[1] 0.000205253
2 *172:X 0.000205253
3 out[1] out[2] 0
4 out[0] out[1] 1.92979e-05
*RES
1 *172:X out[1] 4.84677 
*END

*D_NET *13 0.000420095
*CONN
*P out[2] O
*I *173:X O *D sky130_fd_sc_hd__buf_2
*CAP
1 out[2] 0.000204192
2 *173:X 0.000204192
3 out[2] out[3] 0
4 out[2] *176:A 1.17114e-05
5 out[1] out[2] 0
*RES
1 *173:X out[2] 4.84677 
*END

*D_NET *14 0.000556923
*CONN
*P out[3] O
*I *174:X O *D sky130_fd_sc_hd__buf_2
*CAP
1 out[3] 0.000248117
2 *174:X 0.000248117
3 out[3] out[4] 0
4 out[3] *176:A 6.06899e-05
5 out[2] out[3] 0
*RES
1 *174:X out[3] 5.86677 
*END

*D_NET *15 0.000413408
*CONN
*P out[4] O
*I *175:X O *D sky130_fd_sc_hd__buf_2
*CAP
1 out[4] 0.000200848
2 *175:X 0.000200848
3 out[4] out[5] 0
4 out[4] *176:A 1.17114e-05
5 out[3] out[4] 0
*RES
1 *175:X out[4] 4.84677 
*END

*D_NET *16 0.00054695
*CONN
*P out[5] O
*I *176:X O *D sky130_fd_sc_hd__buf_2
*CAP
1 out[5] 0.000251457
2 *176:X 0.000251457
3 out[5] out[6] 0
4 out[5] *178:A 4.40358e-05
5 out[4] out[5] 0
*RES
1 *176:X out[5] 5.86677 
*END

*D_NET *17 0.000710986
*CONN
*P out[6] O
*I *177:X O *D sky130_fd_sc_hd__buf_2
*CAP
1 out[6] 0.000355493
2 *177:X 0.000355493
3 out[6] out[7] 0
4 out[5] out[6] 0
*RES
1 *177:X out[6] 5.19637 
*END

*D_NET *18 0.000971234
*CONN
*P out[7] O
*I *178:X O *D sky130_fd_sc_hd__clkbuf_4
*CAP
1 out[7] 0.000485617
2 *178:X 0.000485617
3 out[6] out[7] 0
*RES
1 *178:X out[7] 10.1435 
*END

*D_NET *19 0.0028437
*CONN
*I *162:A I *D sky130_fd_sc_hd__nor2_1
*I *147:B I *D sky130_fd_sc_hd__xnor2_1
*I *146:Y O *D sky130_fd_sc_hd__nor2_1
*CAP
1 *162:A 0
2 *147:B 0.000243721
3 *146:Y 0.000133802
4 *19:8 0.000377523
5 *147:B *155:A 0.000320157
6 *147:B *158:A 0
7 *147:B *160:A 0.000512023
8 *147:B *21:18 0.00011379
9 *147:B *25:8 0
10 *19:8 *146:B 0.000198339
11 *19:8 *154:B 0.000100247
12 *19:8 *162:B 0.000235568
13 *19:8 *175:A 0.00060853
*RES
1 *146:Y *19:8 7.585 
2 *19:8 *147:B 13.61 
3 *19:8 *162:A 1.6 
*END

*D_NET *20 0.00196303
*CONN
*I *150:A_N I *D sky130_fd_sc_hd__and2b_1
*I *148:X O *D sky130_fd_sc_hd__o31a_1
*CAP
1 *150:A_N 0.000626996
2 *148:X 0.000626996
3 *150:A_N *148:A2 0.000226917
4 *150:A_N *160:A 0.00011852
5 *150:A_N *163:A 5.6361e-05
6 *150:A_N *179:A 0.000233786
7 *150:A_N *21:14 7.92464e-06
8 *150:A_N *25:8 6.55328e-05
*RES
1 *148:X *150:A_N 16.275 
*END

*D_NET *21 0.00472441
*CONN
*I *150:B I *D sky130_fd_sc_hd__and2b_1
*I *153:B I *D sky130_fd_sc_hd__and2_1
*I *156:D I *D sky130_fd_sc_hd__or4_1
*I *157:A3 I *D sky130_fd_sc_hd__o31ai_1
*I *152:B I *D sky130_fd_sc_hd__nor2_1
*I *149:X O *D sky130_fd_sc_hd__or4_2
*CAP
1 *150:B 8.32874e-05
2 *153:B 0.000202714
3 *156:D 0
4 *157:A3 0
5 *152:B 0.000225616
6 *149:X 0.000184558
7 *21:24 0.000372965
8 *21:18 0.000260064
9 *21:14 0.000589178
10 *21:8 0.000541595
11 *150:B *151:A 0.0001249
12 *150:B *174:A 1.03323e-05
13 *152:B *152:A 0.000139238
14 *152:B *157:A2 6.65504e-05
15 *152:B *40:10 4.44927e-05
16 *152:B *42:10 0
17 *153:B *153:A 4.82863e-05
18 *153:B *160:A 0.000108968
19 *153:B *172:A 2.49909e-05
20 *153:B *179:A 2.88598e-05
21 *153:B *25:8 6.78921e-05
22 *21:8 *155:A 0
23 *21:8 *155:B 0.000134798
24 *21:14 *155:A 0
25 *21:14 *155:B 8.38856e-05
26 *21:14 *163:A 5.83121e-06
27 *21:14 *179:A 3.64522e-05
28 *21:18 *155:A 0.000238802
29 *21:18 *160:A 0.000102346
30 *21:18 *41:21 6.52181e-05
31 *21:24 *157:A2 0.000263469
32 *21:24 *158:B 0.000158066
33 *21:24 *160:A 0.000178496
34 *21:24 *41:21 0.000210846
35 *147:B *21:18 0.00011379
36 *150:A_N *21:14 7.92464e-06
*RES
1 *149:X *21:8 7.53 
2 *21:8 *21:14 6.23 
3 *21:14 *21:18 5.675 
4 *21:18 *21:24 7.505 
5 *21:24 *152:B 9.485 
6 *21:24 *157:A3 1.6 
7 *21:18 *156:D 3.6 
8 *21:14 *153:B 9.125 
9 *21:8 *150:B 5.085 
*END

*D_NET *22 0.000978538
*CONN
*I *151:A I *D sky130_fd_sc_hd__clkbuf_1
*I *150:X O *D sky130_fd_sc_hd__and2b_1
*CAP
1 *151:A 0.000311936
2 *150:X 0.000311936
3 *151:A *174:A 0.000229766
4 *150:B *151:A 0.0001249
*RES
1 *150:X *151:A 9.53 
*END

*D_NET *23 0.00661098
*CONN
*I *155:B I *D sky130_fd_sc_hd__xnor2_1
*I *154:A I *D sky130_fd_sc_hd__nor2_1
*I *152:Y O *D sky130_fd_sc_hd__nor2_1
*CAP
1 *155:B 0.000747242
2 *154:A 0.00047972
3 *152:Y 0.000482922
4 *23:14 0.00170988
5 *154:A *154:B 0.000630844
6 *155:B *155:A 0.000278117
7 *155:B *29:10 0.000613801
8 *155:B *29:12 0.000492013
9 *155:B *29:14 0.000116853
10 *23:14 *152:A 0.00014904
11 *23:14 *154:B 7.49327e-05
12 *23:14 *155:A 0
13 *23:14 *156:C 0.000152186
14 *23:14 *162:B 0.000134509
15 *23:14 *29:14 1.14559e-05
16 *23:14 *40:10 0.000239378
17 *23:14 *41:21 0
18 *23:14 *42:10 4.70343e-05
19 *168:A *154:A 3.23663e-05
20 *21:8 *155:B 0.000134798
21 *21:14 *155:B 8.38856e-05
*RES
1 *152:Y *23:14 16.145 
2 *23:14 *154:A 8.53 
3 *23:14 *155:B 24.41 
*END

*D_NET *24 0.00221346
*CONN
*I *154:B I *D sky130_fd_sc_hd__nor2_1
*I *153:X O *D sky130_fd_sc_hd__and2_1
*CAP
1 *154:B 0.000277331
2 *153:X 0.000277331
3 *154:B *146:B 0.000198339
4 *154:B *153:A 5.83121e-06
5 *154:B *162:B 0.000235568
6 *154:B *172:A 0.000118081
7 *154:B *175:A 5.87138e-05
8 *154:B *37:16 0.000196669
9 *154:A *154:B 0.000630844
10 *168:A *154:B 3.95724e-05
11 *19:8 *154:B 0.000100247
12 *23:14 *154:B 7.49327e-05
*RES
1 *153:X *154:B 12.98 
*END

*D_NET *25 0.00317179
*CONN
*I *158:A I *D sky130_fd_sc_hd__and2_1
*I *160:B I *D sky130_fd_sc_hd__xor2_1
*I *156:X O *D sky130_fd_sc_hd__or4_1
*CAP
1 *158:A 0.000349501
2 *160:B 4.82046e-05
3 *156:X 0.00021387
4 *25:8 0.000611576
5 *158:A *155:A 0
6 *158:A *158:B 0.000682038
7 *158:A *173:A 0.00011852
8 *158:A *179:A 4.82919e-05
9 *160:B *174:A 4.66108e-05
10 *25:8 *153:A 2.59981e-05
11 *25:8 *156:A 3.86529e-05
12 *25:8 *158:B 0.000664858
13 *25:8 *160:A 7.33865e-05
14 *25:8 *174:A 0.000116853
15 *147:B *158:A 0
16 *147:B *25:8 0
17 *150:A_N *25:8 6.55328e-05
18 *153:B *25:8 6.78921e-05
*RES
1 *156:X *25:8 11.355 
2 *25:8 *160:B 4.395 
3 *25:8 *158:A 12.09 
*END

*D_NET *26 0.00408813
*CONN
*I *158:B I *D sky130_fd_sc_hd__and2_1
*I *157:Y O *D sky130_fd_sc_hd__o31ai_1
*CAP
1 *158:B 0.000930278
2 *157:Y 0.000930278
3 *158:B *155:A 0
4 *158:B *156:A 3.04982e-05
5 *158:B *159:A 0.000377574
6 *158:B *160:A 0
7 *158:B *172:A 0
8 *158:B *177:A 0.000314538
9 *158:A *158:B 0.000682038
10 *21:24 *158:B 0.000158066
11 *25:8 *158:B 0.000664858
*RES
1 *157:Y *158:B 30.195 
*END

*D_NET *27 0.00140448
*CONN
*I *159:A I *D sky130_fd_sc_hd__clkbuf_1
*I *158:X O *D sky130_fd_sc_hd__and2_1
*CAP
1 *159:A 0.000303877
2 *158:X 0.000303877
3 *159:A *172:A 0.000377574
4 *159:A *174:A 7.00889e-06
5 *159:A *177:A 3.45679e-05
6 *158:B *159:A 0.000377574
*RES
1 *158:X *159:A 16.44 
*END

*D_NET *28 0.000905571
*CONN
*I *162:B I *D sky130_fd_sc_hd__nor2_1
*I *161:X O *D sky130_fd_sc_hd__and2_1
*CAP
1 *162:B 9.53977e-05
2 *161:X 9.53977e-05
3 *162:B *161:B 3.23391e-05
4 *162:B *29:14 4.43871e-06
5 *162:B *40:10 7.23533e-05
6 *154:B *162:B 0.000235568
7 *19:8 *162:B 0.000235568
8 *23:14 *162:B 0.000134509
*RES
1 *161:X *162:B 11.01 
*END

*D_NET *29 0.00528851
*CONN
*I *149:B I *D sky130_fd_sc_hd__or4_2
*I *163:A I *D sky130_fd_sc_hd__clkbuf_1
*I *148:A2 I *D sky130_fd_sc_hd__o31a_1
*I *146:B I *D sky130_fd_sc_hd__nor2_1
*I *161:B I *D sky130_fd_sc_hd__and2_1
*I *164:X O *D sky130_fd_sc_hd__buf_1
*CAP
1 *149:B 0
2 *163:A 8.0655e-05
3 *148:A2 0.000259538
4 *146:B 3.10019e-05
5 *161:B 0.000113486
6 *164:X 0.00066859
7 *29:34 0.000340193
8 *29:14 0.000238159
9 *29:12 0.000309185
10 *29:10 0.000884103
11 *161:B *40:10 0.000141592
12 *29:10 *149:D 6.42432e-05
13 *29:12 *149:D 0.000179966
14 *150:A_N *148:A2 0.000226917
15 *150:A_N *163:A 5.6361e-05
16 *154:B *146:B 0.000198339
17 *155:B *29:10 0.000613801
18 *155:B *29:12 0.000492013
19 *155:B *29:14 0.000116853
20 *162:B *161:B 3.23391e-05
21 *162:B *29:14 4.43871e-06
22 *165:A *29:10 2.11084e-05
23 *19:8 *146:B 0.000198339
24 *21:14 *163:A 5.83121e-06
25 *23:14 *29:14 1.14559e-05
*RES
1 *164:X *29:10 16.125 
2 *29:10 *29:12 5.715 
3 *29:12 *29:14 1.89 
4 *29:14 *161:B 6 
5 *29:14 *146:B 5.43 
6 *29:12 *29:34 2 
7 *29:34 *148:A2 6.55 
8 *29:34 *163:A 3.085 
9 *29:10 *149:B 3.6 
*END

*D_NET *30 0.00347499
*CONN
*I *172:A I *D sky130_fd_sc_hd__buf_2
*I *162:Y O *D sky130_fd_sc_hd__nor2_1
*CAP
1 *172:A 0.000832136
2 *162:Y 0.000832136
3 *172:A *153:A 3.6537e-05
4 *172:A *175:A 3.54025e-05
5 *172:A *176:A 9.66021e-05
6 *172:A *177:A 0.000248254
7 *172:A *178:A 0
8 *172:A *179:A 0.000873277
9 out[0] *172:A 0
10 *153:B *172:A 2.49909e-05
11 *154:B *172:A 0.000118081
12 *158:B *172:A 0
13 *159:A *172:A 0.000377574
*RES
1 *162:Y *172:A 26.205 
*END

*D_NET *31 0.000826923
*CONN
*I *173:A I *D sky130_fd_sc_hd__buf_2
*I *147:Y O *D sky130_fd_sc_hd__xnor2_1
*CAP
1 *173:A 0.000354202
2 *147:Y 0.000354202
3 *173:A *155:A 0
4 *158:A *173:A 0.00011852
*RES
1 *147:Y *173:A 12.48 
*END

*D_NET *32 0.00251878
*CONN
*I *174:A I *D sky130_fd_sc_hd__buf_2
*I *151:X O *D sky130_fd_sc_hd__clkbuf_1
*CAP
1 *174:A 0.000867812
2 *151:X 0.000867812
3 *174:A *160:A 6.55328e-05
4 *174:A *178:A 0.000307049
5 *150:B *174:A 1.03323e-05
6 *151:A *174:A 0.000229766
7 *159:A *174:A 7.00889e-06
8 *160:B *174:A 4.66108e-05
9 *25:8 *174:A 0.000116853
*RES
1 *151:X *174:A 19.83 
*END

*D_NET *33 0.00303467
*CONN
*I *175:A I *D sky130_fd_sc_hd__buf_2
*I *154:Y O *D sky130_fd_sc_hd__nor2_1
*CAP
1 *175:A 0.00054871
2 *154:Y 0.00054871
3 *175:A *153:A 0.000158072
4 *175:A *37:16 0.000114852
5 *175:A *40:6 0.000494903
6 *175:A *40:34 0.000416817
7 *154:B *175:A 5.87138e-05
8 *168:A *175:A 4.99619e-05
9 *172:A *175:A 3.54025e-05
10 *19:8 *175:A 0.00060853
*RES
1 *154:Y *175:A 17.375 
*END

*D_NET *34 0.00302793
*CONN
*I *176:A I *D sky130_fd_sc_hd__buf_2
*I *155:Y O *D sky130_fd_sc_hd__xnor2_1
*CAP
1 *176:A 0.000958894
2 *155:Y 0.000958894
3 *176:A *178:A 0.000902732
4 *176:A *179:A 0
5 out[0] *176:A 2.66935e-05
6 out[2] *176:A 1.17114e-05
7 out[3] *176:A 6.06899e-05
8 out[4] *176:A 1.17114e-05
9 *172:A *176:A 9.66021e-05
*RES
1 *155:Y *176:A 26.385 
*END

*D_NET *35 0.0021009
*CONN
*I *177:A I *D sky130_fd_sc_hd__buf_2
*I *159:X O *D sky130_fd_sc_hd__clkbuf_1
*CAP
1 *177:A 0.000751772
2 *159:X 0.000751772
3 *177:A *160:A 0
4 *177:A *178:A 0
5 *158:B *177:A 0.000314538
6 *159:A *177:A 3.45679e-05
7 *172:A *177:A 0.000248254
*RES
1 *159:X *177:A 22.215 
*END

*D_NET *36 0.00310571
*CONN
*I *178:A I *D sky130_fd_sc_hd__clkbuf_4
*I *160:X O *D sky130_fd_sc_hd__xor2_1
*CAP
1 *178:A 0.000857061
2 *160:X 0.000857061
3 *178:A *179:A 0.000137769
4 out[5] *178:A 4.40358e-05
5 *172:A *178:A 0
6 *174:A *178:A 0.000307049
7 *176:A *178:A 0.000902732
8 *177:A *178:A 0
*RES
1 *160:X *178:A 26.745 
*END

*D_NET *37 0.00372714
*CONN
*I *149:A I *D sky130_fd_sc_hd__or4_2
*I *148:A1 I *D sky130_fd_sc_hd__o31a_1
*I *146:A I *D sky130_fd_sc_hd__nor2_1
*I *161:A I *D sky130_fd_sc_hd__and2_1
*I *165:X O *D sky130_fd_sc_hd__buf_1
*CAP
1 *149:A 0.000304421
2 *148:A1 0
3 *146:A 0
4 *161:A 0.000270457
5 *165:X 0.000306827
6 *37:16 0.000440782
7 *37:10 0.000480593
8 *37:8 0.000921515
9 *149:A *147:A 4.66826e-05
10 *149:A *38:23 0.000266233
11 *37:8 *38:10 4.65565e-05
12 *37:10 *148:A3 0.00028068
13 *37:10 *148:B1 1.61461e-05
14 *37:10 *38:10 3.05373e-05
15 *37:16 *148:B1 4.18603e-06
16 *154:B *37:16 0.000196669
17 *175:A *37:16 0.000114852
*RES
1 *165:X *37:8 8.805 
2 *37:8 *37:10 6.735 
3 *37:10 *37:16 5.72 
4 *37:16 *161:A 9.575 
5 *37:16 *146:A 1.6 
6 *37:10 *148:A1 3.6 
7 *37:8 *149:A 8.895 
*END

*D_NET *38 0.00254397
*CONN
*I *147:A I *D sky130_fd_sc_hd__xnor2_1
*I *149:C I *D sky130_fd_sc_hd__or4_2
*I *148:A3 I *D sky130_fd_sc_hd__o31a_1
*I *166:X O *D sky130_fd_sc_hd__buf_1
*CAP
1 *147:A 0.000231876
2 *149:C 0
3 *148:A3 0.000183954
4 *166:X 0.000122108
5 *38:23 0.000492901
6 *38:10 0.000567087
7 *148:A3 *148:B1 0.000275355
8 *149:A *147:A 4.66826e-05
9 *149:A *38:23 0.000266233
10 *167:A *148:A3 0
11 *37:8 *38:10 4.65565e-05
12 *37:10 *148:A3 0.00028068
13 *37:10 *38:10 3.05373e-05
*RES
1 *166:X *38:10 5.685 
2 *38:10 *148:A3 9.315 
3 *38:10 *38:23 6.935 
4 *38:23 *149:C 1.6 
5 *38:23 *147:A 5.17 
*END

*D_NET *39 0.00202794
*CONN
*I *149:D I *D sky130_fd_sc_hd__or4_2
*I *148:B1 I *D sky130_fd_sc_hd__o31a_1
*I *167:X O *D sky130_fd_sc_hd__clkbuf_1
*CAP
1 *149:D 0.000599404
2 *148:B1 0.000144617
3 *167:X 0
4 *39:4 0.000744021
5 *148:A3 *148:B1 0.000275355
6 *167:A *148:B1 0
7 *29:10 *149:D 6.42432e-05
8 *29:12 *149:D 0.000179966
9 *37:10 *148:B1 1.61461e-05
10 *37:16 *148:B1 4.18603e-06
*RES
1 *167:X *39:4 1.6 
2 *39:4 *148:B1 9.275 
3 *39:4 *149:D 13.445 
*END

*D_NET *40 0.0043526
*CONN
*I *153:A I *D sky130_fd_sc_hd__and2_1
*I *156:A I *D sky130_fd_sc_hd__or4_1
*I *157:A1 I *D sky130_fd_sc_hd__o31ai_1
*I *152:A I *D sky130_fd_sc_hd__nor2_1
*I *168:X O *D sky130_fd_sc_hd__buf_1
*CAP
1 *153:A 6.24362e-05
2 *156:A 4.09303e-05
3 *157:A1 0
4 *152:A 0.000128803
5 *168:X 0.000338679
6 *40:34 0.000392983
7 *40:10 0.000331442
8 *40:6 0.000830935
9 *153:A *160:A 4.31106e-05
10 *156:A *160:A 0.000141592
11 *152:B *152:A 0.000139238
12 *152:B *40:10 4.44927e-05
13 *153:B *153:A 4.82863e-05
14 *154:B *153:A 5.83121e-06
15 *158:B *156:A 3.04982e-05
16 *161:B *40:10 0.000141592
17 *162:B *40:10 7.23533e-05
18 *172:A *153:A 3.6537e-05
19 *175:A *153:A 0.000158072
20 *175:A *40:6 0.000494903
21 *175:A *40:34 0.000416817
22 *23:14 *152:A 0.00014904
23 *23:14 *40:10 0.000239378
24 *25:8 *153:A 2.59981e-05
25 *25:8 *156:A 3.86529e-05
*RES
1 *168:X *40:6 6.19 
2 *40:6 *40:10 7.715 
3 *40:10 *152:A 6.735 
4 *40:10 *157:A1 3.6 
5 *40:6 *40:34 5.9 
6 *40:34 *156:A 5.235 
7 *40:34 *153:A 5.7 
*END

*D_NET *41 0.00532103
*CONN
*I *155:A I *D sky130_fd_sc_hd__xnor2_1
*I *156:B I *D sky130_fd_sc_hd__or4_1
*I *157:A2 I *D sky130_fd_sc_hd__o31ai_1
*I *169:X O *D sky130_fd_sc_hd__buf_1
*CAP
1 *155:A 0.000949609
2 *156:B 3.98087e-05
3 *157:A2 0.000146914
4 *169:X 0.000610644
5 *41:21 0.00106618
6 *41:8 0.000834321
7 *156:B *156:C 2.49909e-05
8 *157:A2 *156:C 7.17811e-05
9 *157:A2 *160:A 7.21296e-06
10 *41:21 *156:C 0.000126407
11 *147:B *155:A 0.000320157
12 *152:B *157:A2 6.65504e-05
13 *155:B *155:A 0.000278117
14 *158:A *155:A 0
15 *158:B *155:A 0
16 *173:A *155:A 0
17 *21:8 *155:A 0
18 *21:14 *155:A 0
19 *21:18 *155:A 0.000238802
20 *21:18 *41:21 6.52181e-05
21 *21:24 *157:A2 0.000263469
22 *21:24 *41:21 0.000210846
23 *23:14 *155:A 0
24 *23:14 *41:21 0
*RES
1 *169:X *41:8 11.64 
2 *41:8 *157:A2 7.2375 
3 *41:8 *41:21 3.165 
4 *41:21 *156:B 4.05 
5 *41:21 *155:A 22.125 
*END

*D_NET *42 0.00306669
*CONN
*I *156:C I *D sky130_fd_sc_hd__or4_1
*I *157:B1 I *D sky130_fd_sc_hd__o31ai_1
*I *170:X O *D sky130_fd_sc_hd__clkbuf_1
*CAP
1 *156:C 0.000245125
2 *157:B1 0
3 *170:X 0.000730274
4 *42:10 0.000975399
5 *156:C *160:A 0
6 *42:10 *160:A 0.000693496
7 *152:B *42:10 0
8 *156:B *156:C 2.49909e-05
9 *157:A2 *156:C 7.17811e-05
10 *23:14 *156:C 0.000152186
11 *23:14 *42:10 4.70343e-05
12 *41:21 *156:C 0.000126407
*RES
1 *170:X *42:10 14.37 
2 *42:10 *157:B1 3.6 
3 *42:10 *156:C 9.525 
*END

*D_NET *43 0.00405487
*CONN
*I *160:A I *D sky130_fd_sc_hd__xor2_1
*I *171:X O *D sky130_fd_sc_hd__buf_1
*CAP
1 *160:A 0.00100509
2 *171:X 0.00100509
3 *147:B *160:A 0.000512023
4 *150:A_N *160:A 0.00011852
5 *153:A *160:A 4.31106e-05
6 *153:B *160:A 0.000108968
7 *156:A *160:A 0.000141592
8 *156:C *160:A 0
9 *157:A2 *160:A 7.21296e-06
10 *158:B *160:A 0
11 *174:A *160:A 6.55328e-05
12 *177:A *160:A 0
13 *21:18 *160:A 0.000102346
14 *21:24 *160:A 0.000178496
15 *25:8 *160:A 7.33865e-05
16 *42:10 *160:A 0.000693496
*RES
1 *171:X *160:A 31.155 
*END

*D_NET *44 0.00286156
*CONN
*I *179:A I *D sky130_fd_sc_hd__buf_2
*I *163:X O *D sky130_fd_sc_hd__clkbuf_1
*CAP
1 *179:A 0.000751565
2 *163:X 0.000751565
3 *150:A_N *179:A 0.000233786
4 *153:B *179:A 2.88598e-05
5 *158:A *179:A 4.82919e-05
6 *172:A *179:A 0.000873277
7 *176:A *179:A 0
8 *178:A *179:A 0.000137769
9 *21:14 *179:A 3.64522e-05
*RES
1 *163:X *179:A 23.67 
*END
